* NGSPICE file created from caparray_s1.ext - technology: gf180mcuC

* Black-box entry subcircuit for gf180mcu_fd_sc_mcu7t5v0__fillcap_16 abstract view
.subckt gf180mcu_fd_sc_mcu7t5v0__fillcap_16 VDD VSS
.ends

* Black-box entry subcircuit for gf180mcu_fd_sc_mcu7t5v0__fill_2 abstract view
.subckt gf180mcu_fd_sc_mcu7t5v0__fill_2 VDD VSS
.ends

* Black-box entry subcircuit for gf180mcu_fd_sc_mcu7t5v0__filltie abstract view
.subckt gf180mcu_fd_sc_mcu7t5v0__filltie VDD VSS
.ends

* Black-box entry subcircuit for gf180mcu_fd_sc_mcu7t5v0__aoi21_4 abstract view
.subckt gf180mcu_fd_sc_mcu7t5v0__aoi21_4 A1 A2 B ZN VDD VSS
.ends

* Black-box entry subcircuit for gf180mcu_fd_sc_mcu7t5v0__fillcap_8 abstract view
.subckt gf180mcu_fd_sc_mcu7t5v0__fillcap_8 VDD VSS
.ends

* Black-box entry subcircuit for gf180mcu_fd_sc_mcu7t5v0__fill_1 abstract view
.subckt gf180mcu_fd_sc_mcu7t5v0__fill_1 VDD VSS
.ends

* Black-box entry subcircuit for gf180mcu_fd_sc_mcu7t5v0__fillcap_4 abstract view
.subckt gf180mcu_fd_sc_mcu7t5v0__fillcap_4 VDD VSS
.ends

* Black-box entry subcircuit for gf180mcu_fd_sc_mcu7t5v0__fillcap_32 abstract view
.subckt gf180mcu_fd_sc_mcu7t5v0__fillcap_32 VDD VSS
.ends

* Black-box entry subcircuit for gf180mcu_fd_sc_mcu7t5v0__aoi21_1 abstract view
.subckt gf180mcu_fd_sc_mcu7t5v0__aoi21_1 A1 A2 B ZN VDD VSS
.ends

* Black-box entry subcircuit for gf180mcu_fd_sc_mcu7t5v0__fillcap_64 abstract view
.subckt gf180mcu_fd_sc_mcu7t5v0__fillcap_64 VDD VSS
.ends

* Black-box entry subcircuit for gf180mcu_fd_sc_mcu7t5v0__endcap abstract view
.subckt gf180mcu_fd_sc_mcu7t5v0__endcap VDD VSS
.ends

.subckt caparray_s1 cap_series_gygyn cap_series_gygyp cap_series_gyn cap_series_gyp
+ cap_shunt_gyn cap_shunt_gyp cap_shunt_n cap_shunt_p tune_series_gy[0] tune_series_gy[1]
+ tune_series_gy[2] tune_series_gy[3] tune_series_gy[4] tune_series_gy[5] tune_series_gygy[0]
+ tune_series_gygy[1] tune_series_gygy[2] tune_series_gygy[3] tune_series_gygy[4]
+ tune_series_gygy[5] tune_shunt[0] tune_shunt[1] tune_shunt[2] tune_shunt[3] tune_shunt[4]
+ tune_shunt[5] tune_shunt[6] tune_shunt[7] tune_shunt_gy[0] tune_shunt_gy[1] tune_shunt_gy[2]
+ tune_shunt_gy[3] tune_shunt_gy[4] tune_shunt_gy[5] tune_shunt_gy[6] vdd vss
XFILLER_39_266 vdd vss gf180mcu_fd_sc_mcu7t5v0__fillcap_16
XFILLER_39_211 vdd vss gf180mcu_fd_sc_mcu7t5v0__fill_2
XTAP_199 vdd vss gf180mcu_fd_sc_mcu7t5v0__filltie
XTAP_188 vdd vss gf180mcu_fd_sc_mcu7t5v0__filltie
XTAP_177 vdd vss gf180mcu_fd_sc_mcu7t5v0__filltie
XFILLER_10_317 vdd vss gf180mcu_fd_sc_mcu7t5v0__fill_2
Xgen_series_gy_g1\[12\].u_series_gyn1 cap_series_gyn cap_series_gyn tune_series_gy[5]
+ gen_series_gy_g1\[12\].u_series_gyn1/ZN vdd vss gf180mcu_fd_sc_mcu7t5v0__aoi21_4
Xgen_series_gy_g1\[0\].u_series_gyp1 cap_series_gyp cap_series_gyp tune_series_gy[5]
+ gen_series_gy_g1\[0\].u_series_gyp1/ZN vdd vss gf180mcu_fd_sc_mcu7t5v0__aoi21_4
Xgen_series_gy_g2\[6\].u_series_gyp1 cap_series_gyp cap_series_gyp tune_series_gy[3]
+ gen_series_gy_g2\[6\].u_series_gyp1/ZN vdd vss gf180mcu_fd_sc_mcu7t5v0__aoi21_4
Xgen_shunt_g1\[72\].u_shunt_p cap_shunt_p cap_shunt_p tune_shunt[7] gen_shunt_g1\[72\].u_shunt_p/ZN
+ vdd vss gf180mcu_fd_sc_mcu7t5v0__aoi21_4
XFILLER_9_115 vdd vss gf180mcu_fd_sc_mcu7t5v0__fill_2
XFILLER_13_144 vdd vss gf180mcu_fd_sc_mcu7t5v0__fillcap_16
XFILLER_5_343 vdd vss gf180mcu_fd_sc_mcu7t5v0__fillcap_8
XFILLER_67_70 vdd vss gf180mcu_fd_sc_mcu7t5v0__fill_1
XFILLER_3_89 vdd vss gf180mcu_fd_sc_mcu7t5v0__fill_2
XFILLER_3_67 vdd vss gf180mcu_fd_sc_mcu7t5v0__fillcap_4
XFILLER_80_2 vdd vss gf180mcu_fd_sc_mcu7t5v0__fillcap_32
Xgen_shunt_g3\[19\].u_shunt_p cap_shunt_p cap_shunt_p tune_shunt[5] gen_shunt_g3\[19\].u_shunt_p/ZN
+ vdd vss gf180mcu_fd_sc_mcu7t5v0__aoi21_4
XFILLER_67_350 vdd vss gf180mcu_fd_sc_mcu7t5v0__fillcap_4
XFILLER_47_18 vdd vss gf180mcu_fd_sc_mcu7t5v0__fill_2
Xgen_shunt_g4\[3\].u_shunt_p cap_shunt_p cap_shunt_p tune_shunt[4] gen_shunt_g4\[3\].u_shunt_p/ZN
+ vdd vss gf180mcu_fd_sc_mcu7t5v0__aoi21_4
XFILLER_50_250 vdd vss gf180mcu_fd_sc_mcu7t5v0__fill_1
Xgen_shunt_g2\[27\].u_shunt_n cap_shunt_n cap_shunt_n tune_shunt[6] gen_shunt_g2\[27\].u_shunt_n/ZN
+ vdd vss gf180mcu_fd_sc_mcu7t5v0__aoi21_4
XFILLER_37_73 vdd vss gf180mcu_fd_sc_mcu7t5v0__fillcap_16
Xgen_shunt_g1\[21\].u_shunt_p cap_shunt_p cap_shunt_p tune_shunt[7] gen_shunt_g1\[21\].u_shunt_p/ZN
+ vdd vss gf180mcu_fd_sc_mcu7t5v0__aoi21_4
Xgen_shunt_g1\[117\].u_shunt_p cap_shunt_p cap_shunt_p tune_shunt[7] gen_shunt_g1\[117\].u_shunt_p/ZN
+ vdd vss gf180mcu_fd_sc_mcu7t5v0__aoi21_4
Xgen_shunt_gy_g1\[7\].u_shunt_gyn2 cap_shunt_gyn cap_shunt_gyn tune_shunt_gy[5] gen_shunt_gy_g1\[7\].u_shunt_gyn2/ZN
+ vdd vss gf180mcu_fd_sc_mcu7t5v0__aoi21_1
Xgen_series_gy_g1\[5\].u_series_gyn1 cap_series_gyn cap_series_gyn tune_series_gy[5]
+ gen_series_gy_g1\[5\].u_series_gyn1/ZN vdd vss gf180mcu_fd_sc_mcu7t5v0__aoi21_4
XFILLER_32_250 vdd vss gf180mcu_fd_sc_mcu7t5v0__fill_1
XFILLER_59_169 vdd vss gf180mcu_fd_sc_mcu7t5v0__fill_2
XFILLER_70_389 vdd vss gf180mcu_fd_sc_mcu7t5v0__fill_1
Xgen_shunt_g2\[61\].u_shunt_p cap_shunt_p cap_shunt_p tune_shunt[6] gen_shunt_g2\[61\].u_shunt_p/ZN
+ vdd vss gf180mcu_fd_sc_mcu7t5v0__aoi21_4
XFILLER_7_405 vdd vss gf180mcu_fd_sc_mcu7t5v0__fillcap_8
Xgen_shunt_g8\[0\].u_shunt_p cap_shunt_p cap_shunt_p tune_shunt[0] gen_shunt_g8\[0\].u_shunt_p/ZN
+ vdd vss gf180mcu_fd_sc_mcu7t5v0__aoi21_4
XFILLER_2_176 vdd vss gf180mcu_fd_sc_mcu7t5v0__fill_1
Xgen_series_gy_g11\[0\].u_series_gyn1 cap_series_gyn cap_series_gyn tune_series_gy[4]
+ gen_series_gy_g11\[0\].u_series_gyn1/ZN vdd vss gf180mcu_fd_sc_mcu7t5v0__aoi21_4
XFILLER_14_250 vdd vss gf180mcu_fd_sc_mcu7t5v0__fill_1
XFILLER_43_2 vdd vss gf180mcu_fd_sc_mcu7t5v0__fillcap_16
Xgen_shunt_gy_g1\[3\].u_shunt_gyp2 cap_shunt_gyp cap_shunt_gyp tune_shunt_gy[5] gen_shunt_gy_g1\[3\].u_shunt_gyp2/ZN
+ vdd vss gf180mcu_fd_sc_mcu7t5v0__aoi21_1
XFILLER_52_389 vdd vss gf180mcu_fd_sc_mcu7t5v0__fill_1
XFILLER_52_301 vdd vss gf180mcu_fd_sc_mcu7t5v0__fillcap_16
XFILLER_37_353 vdd vss gf180mcu_fd_sc_mcu7t5v0__fill_2
Xgen_series_gy_g11\[11\].u_series_gyn1 cap_series_gyn cap_series_gyn tune_series_gy[4]
+ gen_series_gy_g11\[11\].u_series_gyn1/ZN vdd vss gf180mcu_fd_sc_mcu7t5v0__aoi21_4
XFILLER_4_408 vdd vss gf180mcu_fd_sc_mcu7t5v0__fillcap_8
XFILLER_20_275 vdd vss gf180mcu_fd_sc_mcu7t5v0__fill_2
Xgen_shunt_g1\[88\].u_shunt_n cap_shunt_n cap_shunt_n tune_shunt[7] gen_shunt_g1\[88\].u_shunt_n/ZN
+ vdd vss gf180mcu_fd_sc_mcu7t5v0__aoi21_4
Xgen_shunt_gygy_g2\[3\].u_shunt_gyn1 cap_series_gygyn cap_series_gygyn tune_series_gygy[4]
+ gen_shunt_gygy_g2\[3\].u_shunt_gyn1/ZN vdd vss gf180mcu_fd_sc_mcu7t5v0__aoi21_4
XFILLER_18_53 vdd vss gf180mcu_fd_sc_mcu7t5v0__fill_2
Xgen_shunt_g3\[16\].u_shunt_n cap_shunt_n cap_shunt_n tune_shunt[5] gen_shunt_g3\[16\].u_shunt_n/ZN
+ vdd vss gf180mcu_fd_sc_mcu7t5v0__aoi21_4
Xgen_shunt_g2\[10\].u_shunt_p cap_shunt_p cap_shunt_p tune_shunt[6] gen_shunt_g2\[10\].u_shunt_p/ZN
+ vdd vss gf180mcu_fd_sc_mcu7t5v0__aoi21_4
XTAP_507 vdd vss gf180mcu_fd_sc_mcu7t5v0__filltie
XFILLER_11_286 vdd vss gf180mcu_fd_sc_mcu7t5v0__fill_1
XFILLER_66_415 vdd vss gf180mcu_fd_sc_mcu7t5v0__fillcap_4
XTAP_529 vdd vss gf180mcu_fd_sc_mcu7t5v0__filltie
XTAP_518 vdd vss gf180mcu_fd_sc_mcu7t5v0__filltie
XFILLER_75_70 vdd vss gf180mcu_fd_sc_mcu7t5v0__fill_1
Xgen_shunt_g2\[29\].u_shunt_p cap_shunt_p cap_shunt_p tune_shunt[6] gen_shunt_g2\[29\].u_shunt_p/ZN
+ vdd vss gf180mcu_fd_sc_mcu7t5v0__aoi21_4
XFILLER_19_353 vdd vss gf180mcu_fd_sc_mcu7t5v0__fill_2
XFILLER_34_301 vdd vss gf180mcu_fd_sc_mcu7t5v0__fillcap_16
Xgen_shunt_g4\[0\].u_shunt_n cap_shunt_n cap_shunt_n tune_shunt[4] gen_shunt_g4\[0\].u_shunt_n/ZN
+ vdd vss gf180mcu_fd_sc_mcu7t5v0__aoi21_4
XFILLER_69_286 vdd vss gf180mcu_fd_sc_mcu7t5v0__fillcap_64
XFILLER_55_18 vdd vss gf180mcu_fd_sc_mcu7t5v0__fill_2
Xgen_shunt_g1\[114\].u_shunt_n cap_shunt_n cap_shunt_n tune_shunt[7] gen_shunt_g1\[114\].u_shunt_n/ZN
+ vdd vss gf180mcu_fd_sc_mcu7t5v0__aoi21_4
XFILLER_29_139 vdd vss gf180mcu_fd_sc_mcu7t5v0__fill_2
XFILLER_52_175 vdd vss gf180mcu_fd_sc_mcu7t5v0__fill_2
Xgen_shunt_g1\[37\].u_shunt_n cap_shunt_n cap_shunt_n tune_shunt[7] gen_shunt_g1\[37\].u_shunt_n/ZN
+ vdd vss gf180mcu_fd_sc_mcu7t5v0__aoi21_4
XFILLER_75_212 vdd vss gf180mcu_fd_sc_mcu7t5v0__fill_1
XFILLER_63_418 vdd vss gf180mcu_fd_sc_mcu7t5v0__fill_2
XFILLER_45_73 vdd vss gf180mcu_fd_sc_mcu7t5v0__fillcap_16
XFILLER_16_301 vdd vss gf180mcu_fd_sc_mcu7t5v0__fillcap_16
XFILLER_31_337 vdd vss gf180mcu_fd_sc_mcu7t5v0__fillcap_16
XFILLER_3_282 vdd vss gf180mcu_fd_sc_mcu7t5v0__fill_2
XTAP_304 vdd vss gf180mcu_fd_sc_mcu7t5v0__filltie
XTAP_315 vdd vss gf180mcu_fd_sc_mcu7t5v0__filltie
XTAP_326 vdd vss gf180mcu_fd_sc_mcu7t5v0__filltie
XTAP_337 vdd vss gf180mcu_fd_sc_mcu7t5v0__filltie
XTAP_348 vdd vss gf180mcu_fd_sc_mcu7t5v0__filltie
XTAP_359 vdd vss gf180mcu_fd_sc_mcu7t5v0__filltie
Xgen_series_gy_g1\[20\].u_series_gyn1 cap_series_gyn cap_series_gyn tune_series_gy[5]
+ gen_series_gy_g1\[20\].u_series_gyn1/ZN vdd vss gf180mcu_fd_sc_mcu7t5v0__aoi21_4
XFILLER_22_337 vdd vss gf180mcu_fd_sc_mcu7t5v0__fill_2
XFILLER_34_175 vdd vss gf180mcu_fd_sc_mcu7t5v0__fill_2
XFILLER_30_392 vdd vss gf180mcu_fd_sc_mcu7t5v0__fill_2
Xgen_shunt_g1\[71\].u_shunt_p cap_shunt_p cap_shunt_p tune_shunt[7] gen_shunt_g1\[71\].u_shunt_p/ZN
+ vdd vss gf180mcu_fd_sc_mcu7t5v0__aoi21_4
XFILLER_40_167 vdd vss gf180mcu_fd_sc_mcu7t5v0__fillcap_8
XFILLER_13_337 vdd vss gf180mcu_fd_sc_mcu7t5v0__fillcap_16
XFILLER_15_98 vdd vss gf180mcu_fd_sc_mcu7t5v0__fillcap_8
XFILLER_63_215 vdd vss gf180mcu_fd_sc_mcu7t5v0__fillcap_64
Xgen_shunt_g3\[18\].u_shunt_p cap_shunt_p cap_shunt_p tune_shunt[5] gen_shunt_g3\[18\].u_shunt_p/ZN
+ vdd vss gf180mcu_fd_sc_mcu7t5v0__aoi21_4
XFILLER_8_385 vdd vss gf180mcu_fd_sc_mcu7t5v0__fillcap_4
XFILLER_12_392 vdd vss gf180mcu_fd_sc_mcu7t5v0__fill_2
XTAP_189 vdd vss gf180mcu_fd_sc_mcu7t5v0__filltie
XTAP_167 vdd vss gf180mcu_fd_sc_mcu7t5v0__filltie
XTAP_178 vdd vss gf180mcu_fd_sc_mcu7t5v0__filltie
XFILLER_54_204 vdd vss gf180mcu_fd_sc_mcu7t5v0__fill_2
Xgen_shunt_g4\[2\].u_shunt_p cap_shunt_p cap_shunt_p tune_shunt[4] gen_shunt_g4\[2\].u_shunt_p/ZN
+ vdd vss gf180mcu_fd_sc_mcu7t5v0__aoi21_4
Xgen_shunt_g1\[20\].u_shunt_p cap_shunt_p cap_shunt_p tune_shunt[7] gen_shunt_g1\[20\].u_shunt_p/ZN
+ vdd vss gf180mcu_fd_sc_mcu7t5v0__aoi21_4
XFILLER_45_215 vdd vss gf180mcu_fd_sc_mcu7t5v0__fill_1
Xgen_shunt_g2\[26\].u_shunt_n cap_shunt_n cap_shunt_n tune_shunt[6] gen_shunt_g2\[26\].u_shunt_n/ZN
+ vdd vss gf180mcu_fd_sc_mcu7t5v0__aoi21_4
Xgen_shunt_g1\[116\].u_shunt_p cap_shunt_p cap_shunt_p tune_shunt[7] gen_shunt_g1\[116\].u_shunt_p/ZN
+ vdd vss gf180mcu_fd_sc_mcu7t5v0__aoi21_4
XFILLER_13_134 vdd vss gf180mcu_fd_sc_mcu7t5v0__fillcap_8
XFILLER_5_311 vdd vss gf180mcu_fd_sc_mcu7t5v0__fillcap_32
XFILLER_68_318 vdd vss gf180mcu_fd_sc_mcu7t5v0__fill_1
Xgen_shunt_g1\[39\].u_shunt_p cap_shunt_p cap_shunt_p tune_shunt[7] gen_shunt_g1\[39\].u_shunt_p/ZN
+ vdd vss gf180mcu_fd_sc_mcu7t5v0__aoi21_4
XFILLER_36_204 vdd vss gf180mcu_fd_sc_mcu7t5v0__fill_2
XFILLER_73_2 vdd vss gf180mcu_fd_sc_mcu7t5v0__fillcap_64
XFILLER_27_215 vdd vss gf180mcu_fd_sc_mcu7t5v0__fill_1
XFILLER_63_18 vdd vss gf180mcu_fd_sc_mcu7t5v0__fill_2
Xgen_shunt_g2\[60\].u_shunt_p cap_shunt_p cap_shunt_p tune_shunt[6] gen_shunt_g2\[60\].u_shunt_p/ZN
+ vdd vss gf180mcu_fd_sc_mcu7t5v0__aoi21_4
XFILLER_6_108 vdd vss gf180mcu_fd_sc_mcu7t5v0__fillcap_16
XFILLER_77_137 vdd vss gf180mcu_fd_sc_mcu7t5v0__fillcap_4
XFILLER_73_354 vdd vss gf180mcu_fd_sc_mcu7t5v0__fill_1
XFILLER_18_204 vdd vss gf180mcu_fd_sc_mcu7t5v0__fill_2
XFILLER_53_73 vdd vss gf180mcu_fd_sc_mcu7t5v0__fillcap_16
XFILLER_41_240 vdd vss gf180mcu_fd_sc_mcu7t5v0__fill_2
XFILLER_5_141 vdd vss gf180mcu_fd_sc_mcu7t5v0__fill_1
XFILLER_64_321 vdd vss gf180mcu_fd_sc_mcu7t5v0__fillcap_16
XFILLER_59_126 vdd vss gf180mcu_fd_sc_mcu7t5v0__fillcap_16
Xgen_shunt_g1\[87\].u_shunt_n cap_shunt_n cap_shunt_n tune_shunt[7] gen_shunt_g1\[87\].u_shunt_n/ZN
+ vdd vss gf180mcu_fd_sc_mcu7t5v0__aoi21_4
XFILLER_55_354 vdd vss gf180mcu_fd_sc_mcu7t5v0__fill_1
Xgen_shunt_g3\[15\].u_shunt_n cap_shunt_n cap_shunt_n tune_shunt[5] gen_shunt_g3\[15\].u_shunt_n/ZN
+ vdd vss gf180mcu_fd_sc_mcu7t5v0__aoi21_4
XFILLER_11_413 vdd vss gf180mcu_fd_sc_mcu7t5v0__fillcap_4
XFILLER_23_240 vdd vss gf180mcu_fd_sc_mcu7t5v0__fill_2
XFILLER_7_417 vdd vss gf180mcu_fd_sc_mcu7t5v0__fill_2
XFILLER_23_98 vdd vss gf180mcu_fd_sc_mcu7t5v0__fillcap_8
XFILLER_3_2 vdd vss gf180mcu_fd_sc_mcu7t5v0__fill_1
XFILLER_61_357 vdd vss gf180mcu_fd_sc_mcu7t5v0__fillcap_8
Xgen_shunt_g2\[28\].u_shunt_p cap_shunt_p cap_shunt_p tune_shunt[6] gen_shunt_g2\[28\].u_shunt_p/ZN
+ vdd vss gf180mcu_fd_sc_mcu7t5v0__aoi21_4
XFILLER_46_321 vdd vss gf180mcu_fd_sc_mcu7t5v0__fill_1
XFILLER_9_89 vdd vss gf180mcu_fd_sc_mcu7t5v0__fill_2
XFILLER_36_2 vdd vss gf180mcu_fd_sc_mcu7t5v0__fillcap_8
Xgen_shunt_gy_g1\[3\].u_shunt_gyn1 cap_shunt_gyn cap_shunt_gyn tune_shunt_gy[6] gen_shunt_gy_g1\[3\].u_shunt_gyn1/ZN
+ vdd vss gf180mcu_fd_sc_mcu7t5v0__aoi21_1
Xgen_shunt_g1\[113\].u_shunt_n cap_shunt_n cap_shunt_n tune_shunt[7] gen_shunt_g1\[113\].u_shunt_n/ZN
+ vdd vss gf180mcu_fd_sc_mcu7t5v0__aoi21_4
Xgen_shunt_g1\[36\].u_shunt_n cap_shunt_n cap_shunt_n tune_shunt[7] gen_shunt_g1\[36\].u_shunt_n/ZN
+ vdd vss gf180mcu_fd_sc_mcu7t5v0__aoi21_4
XFILLER_75_405 vdd vss gf180mcu_fd_sc_mcu7t5v0__fillcap_8
XFILLER_55_195 vdd vss gf180mcu_fd_sc_mcu7t5v0__fillcap_16
XFILLER_43_357 vdd vss gf180mcu_fd_sc_mcu7t5v0__fill_1
XFILLER_28_321 vdd vss gf180mcu_fd_sc_mcu7t5v0__fill_1
XFILLER_70_176 vdd vss gf180mcu_fd_sc_mcu7t5v0__fill_1
XFILLER_34_53 vdd vss gf180mcu_fd_sc_mcu7t5v0__fill_2
XTAP_519 vdd vss gf180mcu_fd_sc_mcu7t5v0__filltie
XTAP_508 vdd vss gf180mcu_fd_sc_mcu7t5v0__filltie
XFILLER_78_243 vdd vss gf180mcu_fd_sc_mcu7t5v0__fillcap_4
XFILLER_66_405 vdd vss gf180mcu_fd_sc_mcu7t5v0__fill_2
XFILLER_46_151 vdd vss gf180mcu_fd_sc_mcu7t5v0__fillcap_16
XFILLER_19_365 vdd vss gf180mcu_fd_sc_mcu7t5v0__fillcap_4
XFILLER_34_346 vdd vss gf180mcu_fd_sc_mcu7t5v0__fill_2
XFILLER_57_405 vdd vss gf180mcu_fd_sc_mcu7t5v0__fillcap_4
Xgen_shunt_g1\[70\].u_shunt_p cap_shunt_p cap_shunt_p tune_shunt[7] gen_shunt_g1\[70\].u_shunt_p/ZN
+ vdd vss gf180mcu_fd_sc_mcu7t5v0__aoi21_4
XFILLER_72_408 vdd vss gf180mcu_fd_sc_mcu7t5v0__fillcap_8
XFILLER_37_195 vdd vss gf180mcu_fd_sc_mcu7t5v0__fillcap_16
XFILLER_25_357 vdd vss gf180mcu_fd_sc_mcu7t5v0__fillcap_8
Xgen_shunt_gygy_g1\[5\].u_shunt_gyp1 cap_series_gygyp cap_series_gygyp tune_series_gygy[5]
+ gen_shunt_gygy_g1\[5\].u_shunt_gyp1/ZN vdd vss gf180mcu_fd_sc_mcu7t5v0__aoi21_4
XFILLER_75_279 vdd vss gf180mcu_fd_sc_mcu7t5v0__fillcap_4
XFILLER_48_416 vdd vss gf180mcu_fd_sc_mcu7t5v0__fillcap_4
Xgen_shunt_g1\[89\].u_shunt_p cap_shunt_p cap_shunt_p tune_shunt[7] gen_shunt_g1\[89\].u_shunt_p/ZN
+ vdd vss gf180mcu_fd_sc_mcu7t5v0__aoi21_4
XFILLER_16_346 vdd vss gf180mcu_fd_sc_mcu7t5v0__fill_2
XFILLER_28_162 vdd vss gf180mcu_fd_sc_mcu7t5v0__fillcap_8
XFILLER_61_73 vdd vss gf180mcu_fd_sc_mcu7t5v0__fill_1
Xgen_shunt_g3\[17\].u_shunt_p cap_shunt_p cap_shunt_p tune_shunt[5] gen_shunt_g3\[17\].u_shunt_p/ZN
+ vdd vss gf180mcu_fd_sc_mcu7t5v0__aoi21_4
Xgen_series_gy_g2\[1\].u_series_gyp1 cap_series_gyp cap_series_gyp tune_series_gy[3]
+ gen_series_gy_g2\[1\].u_series_gyp1/ZN vdd vss gf180mcu_fd_sc_mcu7t5v0__aoi21_4
XFILLER_39_416 vdd vss gf180mcu_fd_sc_mcu7t5v0__fillcap_4
XTAP_305 vdd vss gf180mcu_fd_sc_mcu7t5v0__filltie
XTAP_316 vdd vss gf180mcu_fd_sc_mcu7t5v0__filltie
XTAP_327 vdd vss gf180mcu_fd_sc_mcu7t5v0__filltie
XTAP_338 vdd vss gf180mcu_fd_sc_mcu7t5v0__filltie
XTAP_349 vdd vss gf180mcu_fd_sc_mcu7t5v0__filltie
XFILLER_54_419 vdd vss gf180mcu_fd_sc_mcu7t5v0__fill_1
XFILLER_19_195 vdd vss gf180mcu_fd_sc_mcu7t5v0__fillcap_16
Xgen_shunt_g4\[1\].u_shunt_p cap_shunt_p cap_shunt_p tune_shunt[4] gen_shunt_g4\[1\].u_shunt_p/ZN
+ vdd vss gf180mcu_fd_sc_mcu7t5v0__aoi21_4
XFILLER_15_390 vdd vss gf180mcu_fd_sc_mcu7t5v0__fillcap_4
Xgen_shunt_g2\[25\].u_shunt_n cap_shunt_n cap_shunt_n tune_shunt[6] gen_shunt_g2\[25\].u_shunt_n/ZN
+ vdd vss gf180mcu_fd_sc_mcu7t5v0__aoi21_4
XFILLER_45_408 vdd vss gf180mcu_fd_sc_mcu7t5v0__fill_2
XFILLER_80_282 vdd vss gf180mcu_fd_sc_mcu7t5v0__fillcap_32
XFILLER_45_419 vdd vss gf180mcu_fd_sc_mcu7t5v0__fill_1
XFILLER_40_124 vdd vss gf180mcu_fd_sc_mcu7t5v0__fill_2
Xgen_shunt_g1\[115\].u_shunt_p cap_shunt_p cap_shunt_p tune_shunt[7] gen_shunt_g1\[115\].u_shunt_p/ZN
+ vdd vss gf180mcu_fd_sc_mcu7t5v0__aoi21_4
XFILLER_15_44 vdd vss gf180mcu_fd_sc_mcu7t5v0__fill_2
XFILLER_25_110 vdd vss gf180mcu_fd_sc_mcu7t5v0__fill_2
XFILLER_40_179 vdd vss gf180mcu_fd_sc_mcu7t5v0__fill_1
XFILLER_21_393 vdd vss gf180mcu_fd_sc_mcu7t5v0__fill_2
Xgen_shunt_g1\[38\].u_shunt_p cap_shunt_p cap_shunt_p tune_shunt[7] gen_shunt_g1\[38\].u_shunt_p/ZN
+ vdd vss gf180mcu_fd_sc_mcu7t5v0__aoi21_4
XFILLER_48_246 vdd vss gf180mcu_fd_sc_mcu7t5v0__fill_2
XFILLER_36_419 vdd vss gf180mcu_fd_sc_mcu7t5v0__fill_1
XFILLER_16_110 vdd vss gf180mcu_fd_sc_mcu7t5v0__fill_1
XPHY_160 vdd vss gf180mcu_fd_sc_mcu7t5v0__endcap
XTAP_179 vdd vss gf180mcu_fd_sc_mcu7t5v0__filltie
XTAP_168 vdd vss gf180mcu_fd_sc_mcu7t5v0__filltie
XFILLER_27_419 vdd vss gf180mcu_fd_sc_mcu7t5v0__fill_1
Xgen_series_gy_g1\[0\].u_series_gyn1 cap_series_gyn cap_series_gyn tune_series_gy[5]
+ gen_series_gy_g1\[0\].u_series_gyn1/ZN vdd vss gf180mcu_fd_sc_mcu7t5v0__aoi21_4
XFILLER_22_135 vdd vss gf180mcu_fd_sc_mcu7t5v0__fill_2
XFILLER_22_179 vdd vss gf180mcu_fd_sc_mcu7t5v0__fill_1
Xgen_series_gy_g2\[6\].u_series_gyn1 cap_series_gyn cap_series_gyn tune_series_gy[3]
+ gen_series_gy_g2\[6\].u_series_gyn1/ZN vdd vss gf180mcu_fd_sc_mcu7t5v0__aoi21_4
XFILLER_18_419 vdd vss gf180mcu_fd_sc_mcu7t5v0__fill_1
XFILLER_53_282 vdd vss gf180mcu_fd_sc_mcu7t5v0__fill_2
XFILLER_42_53 vdd vss gf180mcu_fd_sc_mcu7t5v0__fill_2
XFILLER_26_65 vdd vss gf180mcu_fd_sc_mcu7t5v0__fill_2
XFILLER_5_389 vdd vss gf180mcu_fd_sc_mcu7t5v0__fillcap_16
XFILLER_76_385 vdd vss gf180mcu_fd_sc_mcu7t5v0__fillcap_4
XFILLER_8_150 vdd vss gf180mcu_fd_sc_mcu7t5v0__fill_2
XFILLER_66_2 vdd vss gf180mcu_fd_sc_mcu7t5v0__fillcap_8
Xgen_shunt_g1\[86\].u_shunt_n cap_shunt_n cap_shunt_n tune_shunt[7] gen_shunt_g1\[86\].u_shunt_n/ZN
+ vdd vss gf180mcu_fd_sc_mcu7t5v0__aoi21_4
XFILLER_67_396 vdd vss gf180mcu_fd_sc_mcu7t5v0__fill_2
XFILLER_50_230 vdd vss gf180mcu_fd_sc_mcu7t5v0__fillcap_16
XFILLER_35_282 vdd vss gf180mcu_fd_sc_mcu7t5v0__fill_2
XFILLER_10_105 vdd vss gf180mcu_fd_sc_mcu7t5v0__fill_1
Xgen_shunt_g3\[14\].u_shunt_n cap_shunt_n cap_shunt_n tune_shunt[5] gen_shunt_g3\[14\].u_shunt_n/ZN
+ vdd vss gf180mcu_fd_sc_mcu7t5v0__aoi21_4
XFILLER_12_34 vdd vss gf180mcu_fd_sc_mcu7t5v0__fill_1
XFILLER_2_315 vdd vss gf180mcu_fd_sc_mcu7t5v0__fillcap_4
XFILLER_58_385 vdd vss gf180mcu_fd_sc_mcu7t5v0__fillcap_4
Xgen_shunt_g2\[27\].u_shunt_p cap_shunt_p cap_shunt_p tune_shunt[6] gen_shunt_g2\[27\].u_shunt_p/ZN
+ vdd vss gf180mcu_fd_sc_mcu7t5v0__aoi21_4
XFILLER_5_186 vdd vss gf180mcu_fd_sc_mcu7t5v0__fill_2
XFILLER_68_105 vdd vss gf180mcu_fd_sc_mcu7t5v0__fill_1
Xgen_shunt_g1\[112\].u_shunt_n cap_shunt_n cap_shunt_n tune_shunt[7] gen_shunt_g1\[112\].u_shunt_n/ZN
+ vdd vss gf180mcu_fd_sc_mcu7t5v0__aoi21_4
XFILLER_17_282 vdd vss gf180mcu_fd_sc_mcu7t5v0__fill_2
XFILLER_32_230 vdd vss gf180mcu_fd_sc_mcu7t5v0__fillcap_16
Xgen_shunt_g1\[35\].u_shunt_n cap_shunt_n cap_shunt_n tune_shunt[7] gen_shunt_g1\[35\].u_shunt_n/ZN
+ vdd vss gf180mcu_fd_sc_mcu7t5v0__aoi21_4
XFILLER_74_108 vdd vss gf180mcu_fd_sc_mcu7t5v0__fillcap_64
XFILLER_70_314 vdd vss gf180mcu_fd_sc_mcu7t5v0__fillcap_4
XFILLER_23_44 vdd vss gf180mcu_fd_sc_mcu7t5v0__fill_2
XFILLER_73_141 vdd vss gf180mcu_fd_sc_mcu7t5v0__fill_1
XFILLER_61_369 vdd vss gf180mcu_fd_sc_mcu7t5v0__fill_2
XFILLER_46_388 vdd vss gf180mcu_fd_sc_mcu7t5v0__fill_2
XFILLER_0_37 vdd vss gf180mcu_fd_sc_mcu7t5v0__fill_1
XFILLER_14_230 vdd vss gf180mcu_fd_sc_mcu7t5v0__fillcap_16
XFILLER_80_72 vdd vss gf180mcu_fd_sc_mcu7t5v0__fillcap_32
XFILLER_29_2 vdd vss gf180mcu_fd_sc_mcu7t5v0__fillcap_16
Xgen_shunt_gy_g1\[3\].u_shunt_gyn2 cap_shunt_gyn cap_shunt_gyn tune_shunt_gy[5] gen_shunt_gy_g1\[3\].u_shunt_gyn2/ZN
+ vdd vss gf180mcu_fd_sc_mcu7t5v0__aoi21_1
XFILLER_56_108 vdd vss gf180mcu_fd_sc_mcu7t5v0__fill_1
XFILLER_37_311 vdd vss gf180mcu_fd_sc_mcu7t5v0__fill_2
XFILLER_75_417 vdd vss gf180mcu_fd_sc_mcu7t5v0__fill_2
Xgen_shunt_g1\[88\].u_shunt_p cap_shunt_p cap_shunt_p tune_shunt[7] gen_shunt_g1\[88\].u_shunt_p/ZN
+ vdd vss gf180mcu_fd_sc_mcu7t5v0__aoi21_4
XFILLER_28_388 vdd vss gf180mcu_fd_sc_mcu7t5v0__fill_2
Xgen_shunt_g3\[16\].u_shunt_p cap_shunt_p cap_shunt_p tune_shunt[5] gen_shunt_g3\[16\].u_shunt_p/ZN
+ vdd vss gf180mcu_fd_sc_mcu7t5v0__aoi21_4
XFILLER_50_53 vdd vss gf180mcu_fd_sc_mcu7t5v0__fill_2
XFILLER_7_215 vdd vss gf180mcu_fd_sc_mcu7t5v0__fill_1
XFILLER_11_266 vdd vss gf180mcu_fd_sc_mcu7t5v0__fillcap_16
XTAP_509 vdd vss gf180mcu_fd_sc_mcu7t5v0__filltie
XFILLER_59_73 vdd vss gf180mcu_fd_sc_mcu7t5v0__fill_2
XFILLER_38_108 vdd vss gf180mcu_fd_sc_mcu7t5v0__fillcap_16
XFILLER_19_311 vdd vss gf180mcu_fd_sc_mcu7t5v0__fill_2
XFILLER_61_144 vdd vss gf180mcu_fd_sc_mcu7t5v0__fill_1
Xgen_shunt_g4\[0\].u_shunt_p cap_shunt_p cap_shunt_p tune_shunt[4] gen_shunt_g4\[0\].u_shunt_p/ZN
+ vdd vss gf180mcu_fd_sc_mcu7t5v0__aoi21_4
Xgen_shunt_g2\[24\].u_shunt_n cap_shunt_n cap_shunt_n tune_shunt[6] gen_shunt_g2\[24\].u_shunt_n/ZN
+ vdd vss gf180mcu_fd_sc_mcu7t5v0__aoi21_4
XFILLER_40_317 vdd vss gf180mcu_fd_sc_mcu7t5v0__fill_2
XFILLER_37_141 vdd vss gf180mcu_fd_sc_mcu7t5v0__fill_1
Xgen_shunt_g1\[114\].u_shunt_p cap_shunt_p cap_shunt_p tune_shunt[7] gen_shunt_g1\[114\].u_shunt_p/ZN
+ vdd vss gf180mcu_fd_sc_mcu7t5v0__aoi21_4
Xgen_shunt_g1\[37\].u_shunt_p cap_shunt_p cap_shunt_p tune_shunt[7] gen_shunt_g1\[37\].u_shunt_p/ZN
+ vdd vss gf180mcu_fd_sc_mcu7t5v0__aoi21_4
XFILLER_20_34 vdd vss gf180mcu_fd_sc_mcu7t5v0__fill_1
XFILLER_28_174 vdd vss gf180mcu_fd_sc_mcu7t5v0__fill_2
XFILLER_43_144 vdd vss gf180mcu_fd_sc_mcu7t5v0__fill_1
XFILLER_6_69 vdd vss gf180mcu_fd_sc_mcu7t5v0__fillcap_8
XFILLER_66_236 vdd vss gf180mcu_fd_sc_mcu7t5v0__fillcap_8
XFILLER_3_240 vdd vss gf180mcu_fd_sc_mcu7t5v0__fill_2
XTAP_306 vdd vss gf180mcu_fd_sc_mcu7t5v0__filltie
XTAP_317 vdd vss gf180mcu_fd_sc_mcu7t5v0__filltie
XTAP_328 vdd vss gf180mcu_fd_sc_mcu7t5v0__filltie
XTAP_339 vdd vss gf180mcu_fd_sc_mcu7t5v0__filltie
XFILLER_54_409 vdd vss gf180mcu_fd_sc_mcu7t5v0__fill_2
XFILLER_19_141 vdd vss gf180mcu_fd_sc_mcu7t5v0__fill_1
XFILLER_22_317 vdd vss gf180mcu_fd_sc_mcu7t5v0__fill_2
XFILLER_30_372 vdd vss gf180mcu_fd_sc_mcu7t5v0__fillcap_16
XFILLER_30_394 vdd vss gf180mcu_fd_sc_mcu7t5v0__fill_1
XFILLER_25_144 vdd vss gf180mcu_fd_sc_mcu7t5v0__fill_1
XFILLER_31_44 vdd vss gf180mcu_fd_sc_mcu7t5v0__fill_2
Xgen_shunt_g3\[9\].u_shunt_n cap_shunt_n cap_shunt_n tune_shunt[5] gen_shunt_g3\[9\].u_shunt_n/ZN
+ vdd vss gf180mcu_fd_sc_mcu7t5v0__aoi21_4
XPHY_161 vdd vss gf180mcu_fd_sc_mcu7t5v0__endcap
XPHY_150 vdd vss gf180mcu_fd_sc_mcu7t5v0__endcap
XFILLER_71_283 vdd vss gf180mcu_fd_sc_mcu7t5v0__fill_1
XFILLER_8_321 vdd vss gf180mcu_fd_sc_mcu7t5v0__fillcap_64
XFILLER_12_372 vdd vss gf180mcu_fd_sc_mcu7t5v0__fillcap_16
XFILLER_12_394 vdd vss gf180mcu_fd_sc_mcu7t5v0__fill_1
XFILLER_31_136 vdd vss gf180mcu_fd_sc_mcu7t5v0__fillcap_4
XFILLER_31_169 vdd vss gf180mcu_fd_sc_mcu7t5v0__fill_2
Xgen_shunt_g1\[85\].u_shunt_n cap_shunt_n cap_shunt_n tune_shunt[7] gen_shunt_g1\[85\].u_shunt_n/ZN
+ vdd vss gf180mcu_fd_sc_mcu7t5v0__aoi21_4
XFILLER_79_350 vdd vss gf180mcu_fd_sc_mcu7t5v0__fillcap_4
XTAP_169 vdd vss gf180mcu_fd_sc_mcu7t5v0__filltie
XFILLER_11_2 vdd vss gf180mcu_fd_sc_mcu7t5v0__fill_1
Xgen_shunt_g3\[13\].u_shunt_n cap_shunt_n cap_shunt_n tune_shunt[5] gen_shunt_g3\[13\].u_shunt_n/ZN
+ vdd vss gf180mcu_fd_sc_mcu7t5v0__aoi21_4
XFILLER_62_250 vdd vss gf180mcu_fd_sc_mcu7t5v0__fillcap_64
Xgen_shunt_g2\[26\].u_shunt_p cap_shunt_p cap_shunt_p tune_shunt[6] gen_shunt_g2\[26\].u_shunt_p/ZN
+ vdd vss gf180mcu_fd_sc_mcu7t5v0__aoi21_4
XFILLER_26_99 vdd vss gf180mcu_fd_sc_mcu7t5v0__fillcap_4
XFILLER_5_357 vdd vss gf180mcu_fd_sc_mcu7t5v0__fillcap_32
XFILLER_67_73 vdd vss gf180mcu_fd_sc_mcu7t5v0__fill_1
XFILLER_3_59 vdd vss gf180mcu_fd_sc_mcu7t5v0__fillcap_8
Xgen_shunt_g1\[111\].u_shunt_n cap_shunt_n cap_shunt_n tune_shunt[7] gen_shunt_g1\[111\].u_shunt_n/ZN
+ vdd vss gf180mcu_fd_sc_mcu7t5v0__aoi21_4
XFILLER_44_250 vdd vss gf180mcu_fd_sc_mcu7t5v0__fill_1
Xgen_series_gy_g1\[18\].u_series_gyp1 cap_series_gyp cap_series_gyp tune_series_gy[5]
+ gen_series_gy_g1\[18\].u_series_gyp1/ZN vdd vss gf180mcu_fd_sc_mcu7t5v0__aoi21_4
Xgen_shunt_g1\[34\].u_shunt_n cap_shunt_n cap_shunt_n tune_shunt[7] gen_shunt_g1\[34\].u_shunt_n/ZN
+ vdd vss gf180mcu_fd_sc_mcu7t5v0__aoi21_4
XFILLER_8_195 vdd vss gf180mcu_fd_sc_mcu7t5v0__fill_2
XFILLER_59_2 vdd vss gf180mcu_fd_sc_mcu7t5v0__fillcap_16
XFILLER_67_386 vdd vss gf180mcu_fd_sc_mcu7t5v0__fill_2
XFILLER_50_275 vdd vss gf180mcu_fd_sc_mcu7t5v0__fill_2
XFILLER_12_79 vdd vss gf180mcu_fd_sc_mcu7t5v0__fill_2
XFILLER_73_389 vdd vss gf180mcu_fd_sc_mcu7t5v0__fillcap_16
XFILLER_26_250 vdd vss gf180mcu_fd_sc_mcu7t5v0__fill_1
XFILLER_41_286 vdd vss gf180mcu_fd_sc_mcu7t5v0__fill_1
XFILLER_76_172 vdd vss gf180mcu_fd_sc_mcu7t5v0__fillcap_4
XFILLER_49_353 vdd vss gf180mcu_fd_sc_mcu7t5v0__fill_2
XFILLER_64_389 vdd vss gf180mcu_fd_sc_mcu7t5v0__fill_1
XFILLER_32_275 vdd vss gf180mcu_fd_sc_mcu7t5v0__fill_2
Xgen_shunt_g1\[87\].u_shunt_p cap_shunt_p cap_shunt_p tune_shunt[7] gen_shunt_g1\[87\].u_shunt_p/ZN
+ vdd vss gf180mcu_fd_sc_mcu7t5v0__aoi21_4
XFILLER_55_389 vdd vss gf180mcu_fd_sc_mcu7t5v0__fillcap_16
Xgen_shunt_g3\[15\].u_shunt_p cap_shunt_p cap_shunt_p tune_shunt[5] gen_shunt_g3\[15\].u_shunt_p/ZN
+ vdd vss gf180mcu_fd_sc_mcu7t5v0__aoi21_4
XFILLER_7_419 vdd vss gf180mcu_fd_sc_mcu7t5v0__fill_1
XFILLER_23_286 vdd vss gf180mcu_fd_sc_mcu7t5v0__fill_1
XFILLER_2_179 vdd vss gf180mcu_fd_sc_mcu7t5v0__fillcap_16
XFILLER_2_124 vdd vss gf180mcu_fd_sc_mcu7t5v0__fill_2
XFILLER_48_53 vdd vss gf180mcu_fd_sc_mcu7t5v0__fill_2
XFILLER_46_301 vdd vss gf180mcu_fd_sc_mcu7t5v0__fillcap_16
XFILLER_9_69 vdd vss gf180mcu_fd_sc_mcu7t5v0__fill_2
XFILLER_14_275 vdd vss gf180mcu_fd_sc_mcu7t5v0__fill_2
XFILLER_69_415 vdd vss gf180mcu_fd_sc_mcu7t5v0__fillcap_4
Xgen_shunt_g2\[23\].u_shunt_n cap_shunt_n cap_shunt_n tune_shunt[6] gen_shunt_g2\[23\].u_shunt_n/ZN
+ vdd vss gf180mcu_fd_sc_mcu7t5v0__aoi21_4
XFILLER_64_175 vdd vss gf180mcu_fd_sc_mcu7t5v0__fill_2
Xgen_shunt_g1\[113\].u_shunt_p cap_shunt_p cap_shunt_p tune_shunt[7] gen_shunt_g1\[113\].u_shunt_p/ZN
+ vdd vss gf180mcu_fd_sc_mcu7t5v0__aoi21_4
XFILLER_60_392 vdd vss gf180mcu_fd_sc_mcu7t5v0__fillcap_8
Xgen_series_gy_g3\[2\].u_series_gyp1 cap_series_gyp cap_series_gyp tune_series_gy[2]
+ gen_series_gy_g3\[2\].u_series_gyp1/ZN vdd vss gf180mcu_fd_sc_mcu7t5v0__aoi21_4
Xgen_shunt_g1\[36\].u_shunt_p cap_shunt_p cap_shunt_p tune_shunt[7] gen_shunt_g1\[36\].u_shunt_p/ZN
+ vdd vss gf180mcu_fd_sc_mcu7t5v0__aoi21_4
XFILLER_18_34 vdd vss gf180mcu_fd_sc_mcu7t5v0__fill_1
XFILLER_28_301 vdd vss gf180mcu_fd_sc_mcu7t5v0__fillcap_16
XFILLER_43_337 vdd vss gf180mcu_fd_sc_mcu7t5v0__fillcap_16
Xgen_series_gy_g11\[6\].u_series_gyp1 cap_series_gyp cap_series_gyp tune_series_gy[4]
+ gen_series_gy_g11\[6\].u_series_gyp1/ZN vdd vss gf180mcu_fd_sc_mcu7t5v0__aoi21_4
XFILLER_11_212 vdd vss gf180mcu_fd_sc_mcu7t5v0__fill_1
XFILLER_75_73 vdd vss gf180mcu_fd_sc_mcu7t5v0__fillcap_64
XFILLER_46_175 vdd vss gf180mcu_fd_sc_mcu7t5v0__fill_2
XFILLER_42_392 vdd vss gf180mcu_fd_sc_mcu7t5v0__fill_1
XFILLER_41_2 vdd vss gf180mcu_fd_sc_mcu7t5v0__fillcap_16
XFILLER_69_212 vdd vss gf180mcu_fd_sc_mcu7t5v0__fill_1
XFILLER_29_109 vdd vss gf180mcu_fd_sc_mcu7t5v0__fill_2
XFILLER_52_167 vdd vss gf180mcu_fd_sc_mcu7t5v0__fillcap_8
XFILLER_25_337 vdd vss gf180mcu_fd_sc_mcu7t5v0__fillcap_16
Xgen_shunt_gygy_g1\[5\].u_shunt_gyn1 cap_series_gygyn cap_series_gygyn tune_series_gygy[5]
+ gen_shunt_gygy_g1\[5\].u_shunt_gyn1/ZN vdd vss gf180mcu_fd_sc_mcu7t5v0__aoi21_4
XFILLER_20_79 vdd vss gf180mcu_fd_sc_mcu7t5v0__fill_2
XFILLER_29_44 vdd vss gf180mcu_fd_sc_mcu7t5v0__fill_2
XFILLER_75_215 vdd vss gf180mcu_fd_sc_mcu7t5v0__fillcap_64
XFILLER_71_410 vdd vss gf180mcu_fd_sc_mcu7t5v0__fillcap_8
Xgen_shunt_g3\[8\].u_shunt_n cap_shunt_n cap_shunt_n tune_shunt[5] gen_shunt_g3\[8\].u_shunt_n/ZN
+ vdd vss gf180mcu_fd_sc_mcu7t5v0__aoi21_4
XFILLER_24_392 vdd vss gf180mcu_fd_sc_mcu7t5v0__fill_2
Xgen_series_gy_g2\[1\].u_series_gyn1 cap_series_gyn cap_series_gyn tune_series_gy[3]
+ gen_series_gy_g2\[1\].u_series_gyn1/ZN vdd vss gf180mcu_fd_sc_mcu7t5v0__aoi21_4
XFILLER_6_37 vdd vss gf180mcu_fd_sc_mcu7t5v0__fillcap_32
Xgen_shunt_g1\[84\].u_shunt_n cap_shunt_n cap_shunt_n tune_shunt[7] gen_shunt_g1\[84\].u_shunt_n/ZN
+ vdd vss gf180mcu_fd_sc_mcu7t5v0__aoi21_4
XFILLER_66_204 vdd vss gf180mcu_fd_sc_mcu7t5v0__fillcap_32
XTAP_307 vdd vss gf180mcu_fd_sc_mcu7t5v0__filltie
XTAP_318 vdd vss gf180mcu_fd_sc_mcu7t5v0__filltie
XTAP_329 vdd vss gf180mcu_fd_sc_mcu7t5v0__filltie
XFILLER_62_410 vdd vss gf180mcu_fd_sc_mcu7t5v0__fillcap_8
Xgen_shunt_g3\[12\].u_shunt_n cap_shunt_n cap_shunt_n tune_shunt[5] gen_shunt_g3\[12\].u_shunt_n/ZN
+ vdd vss gf180mcu_fd_sc_mcu7t5v0__aoi21_4
XFILLER_34_167 vdd vss gf180mcu_fd_sc_mcu7t5v0__fillcap_8
XFILLER_57_215 vdd vss gf180mcu_fd_sc_mcu7t5v0__fill_1
Xgen_shunt_g2\[25\].u_shunt_p cap_shunt_p cap_shunt_p tune_shunt[6] gen_shunt_g2\[25\].u_shunt_p/ZN
+ vdd vss gf180mcu_fd_sc_mcu7t5v0__aoi21_4
XFILLER_40_126 vdd vss gf180mcu_fd_sc_mcu7t5v0__fill_1
XFILLER_21_351 vdd vss gf180mcu_fd_sc_mcu7t5v0__fillcap_4
XFILLER_48_204 vdd vss gf180mcu_fd_sc_mcu7t5v0__fill_2
Xgen_series_gy_g1\[26\].u_series_gyp1 cap_series_gyp cap_series_gyp tune_series_gy[5]
+ gen_series_gy_g1\[26\].u_series_gyp1/ZN vdd vss gf180mcu_fd_sc_mcu7t5v0__aoi21_4
Xgen_shunt_gygy_g1\[1\].u_shunt_gyp1 cap_series_gygyp cap_series_gygyp tune_series_gygy[5]
+ gen_shunt_gygy_g1\[1\].u_shunt_gyp1/ZN vdd vss gf180mcu_fd_sc_mcu7t5v0__aoi21_4
Xgen_shunt_g1\[110\].u_shunt_n cap_shunt_n cap_shunt_n tune_shunt[7] gen_shunt_g1\[110\].u_shunt_n/ZN
+ vdd vss gf180mcu_fd_sc_mcu7t5v0__aoi21_4
XFILLER_56_53 vdd vss gf180mcu_fd_sc_mcu7t5v0__fill_2