* NGSPICE file created from caparray_s1.ext - technology: gf180mcuC

* Black-box entry subcircuit for gf180mcu_fd_sc_mcu7t5v0__fill_1 abstract view
.subckt gf180mcu_fd_sc_mcu7t5v0__fill_1 VDD VSS
.ends

* Black-box entry subcircuit for gf180mcu_fd_sc_mcu7t5v0__filltie abstract view
.subckt gf180mcu_fd_sc_mcu7t5v0__filltie VDD VSS
.ends

* Black-box entry subcircuit for gf180mcu_fd_sc_mcu7t5v0__aoi21_4 abstract view
.subckt gf180mcu_fd_sc_mcu7t5v0__aoi21_4 A1 A2 B ZN VDD VSS
.ends

* Black-box entry subcircuit for gf180mcu_fd_sc_mcu7t5v0__fillcap_8 abstract view
.subckt gf180mcu_fd_sc_mcu7t5v0__fillcap_8 VDD VSS
.ends

* Black-box entry subcircuit for gf180mcu_fd_sc_mcu7t5v0__fill_2 abstract view
.subckt gf180mcu_fd_sc_mcu7t5v0__fill_2 VDD VSS
.ends

* Black-box entry subcircuit for gf180mcu_fd_sc_mcu7t5v0__fillcap_16 abstract view
.subckt gf180mcu_fd_sc_mcu7t5v0__fillcap_16 VDD VSS
.ends

* Black-box entry subcircuit for gf180mcu_fd_sc_mcu7t5v0__fillcap_64 abstract view
.subckt gf180mcu_fd_sc_mcu7t5v0__fillcap_64 VDD VSS
.ends

* Black-box entry subcircuit for gf180mcu_fd_sc_mcu7t5v0__fillcap_4 abstract view
.subckt gf180mcu_fd_sc_mcu7t5v0__fillcap_4 VDD VSS
.ends

* Black-box entry subcircuit for gf180mcu_fd_sc_mcu7t5v0__aoi21_1 abstract view
.subckt gf180mcu_fd_sc_mcu7t5v0__aoi21_1 A1 A2 B ZN VDD VSS
.ends

* Black-box entry subcircuit for gf180mcu_fd_sc_mcu7t5v0__fillcap_32 abstract view
.subckt gf180mcu_fd_sc_mcu7t5v0__fillcap_32 VDD VSS
.ends

* Black-box entry subcircuit for gf180mcu_fd_sc_mcu7t5v0__endcap abstract view
.subckt gf180mcu_fd_sc_mcu7t5v0__endcap VDD VSS
.ends

.subckt caparray_s1 cap_series_gygyn cap_series_gygyp cap_series_gyn cap_series_gyp
+ cap_shunt_gyn cap_shunt_gyp cap_shunt_n cap_shunt_p tune_series_gy[0] tune_series_gy[1]
+ tune_series_gy[2] tune_series_gy[3] tune_series_gy[4] tune_series_gy[5] tune_series_gygy[0]
+ tune_series_gygy[1] tune_series_gygy[2] tune_series_gygy[3] tune_series_gygy[4]
+ tune_series_gygy[5] tune_shunt[0] tune_shunt[1] tune_shunt[2] tune_shunt[3] tune_shunt[4]
+ tune_shunt[5] tune_shunt[6] tune_shunt[7] tune_shunt_gy[0] tune_shunt_gy[1] tune_shunt_gy[2]
+ tune_shunt_gy[3] tune_shunt_gy[4] tune_shunt_gy[5] tune_shunt_gy[6] vdd vss
XFILLER_27_428 vdd vss gf180mcu_fd_sc_mcu7t5v0__fill_1
XTAP_177 vdd vss gf180mcu_fd_sc_mcu7t5v0__filltie
XTAP_188 vdd vss gf180mcu_fd_sc_mcu7t5v0__filltie
XTAP_199 vdd vss gf180mcu_fd_sc_mcu7t5v0__filltie
Xgen_series_gy_g1\[12\].u_series_gyn1 cap_series_gyn cap_series_gyn tune_series_gy[5]
+ gen_series_gy_g1\[12\].u_series_gyn1/ZN vdd vss gf180mcu_fd_sc_mcu7t5v0__aoi21_4
XFILLER_10_306 vdd vss gf180mcu_fd_sc_mcu7t5v0__fillcap_8
Xgen_series_gy_g1\[0\].u_series_gyp1 cap_series_gyp cap_series_gyp tune_series_gy[5]
+ gen_series_gy_g1\[0\].u_series_gyp1/ZN vdd vss gf180mcu_fd_sc_mcu7t5v0__aoi21_4
Xgen_series_gy_g2\[6\].u_series_gyp1 cap_series_gyp cap_series_gyp tune_series_gy[3]
+ gen_series_gy_g2\[6\].u_series_gyp1/ZN vdd vss gf180mcu_fd_sc_mcu7t5v0__aoi21_4
XFILLER_18_417 vdd vss gf180mcu_fd_sc_mcu7t5v0__fill_2
Xgen_shunt_g1\[72\].u_shunt_p cap_shunt_p cap_shunt_p tune_shunt[7] gen_shunt_g1\[72\].u_shunt_p/ZN
+ vdd vss gf180mcu_fd_sc_mcu7t5v0__aoi21_4
XFILLER_14_656 vdd vss gf180mcu_fd_sc_mcu7t5v0__fillcap_16
XFILLER_9_115 vdd vss gf180mcu_fd_sc_mcu7t5v0__fill_2
XFILLER_13_144 vdd vss gf180mcu_fd_sc_mcu7t5v0__fillcap_16
XFILLER_1_560 vdd vss gf180mcu_fd_sc_mcu7t5v0__fillcap_8
XFILLER_36_247 vdd vss gf180mcu_fd_sc_mcu7t5v0__fill_1
XFILLER_3_89 vdd vss gf180mcu_fd_sc_mcu7t5v0__fill_2
Xgen_shunt_g3\[19\].u_shunt_p cap_shunt_p cap_shunt_p tune_shunt[5] gen_shunt_g3\[19\].u_shunt_p/ZN
+ vdd vss gf180mcu_fd_sc_mcu7t5v0__aoi21_4
Xgen_shunt_g4\[3\].u_shunt_p cap_shunt_p cap_shunt_p tune_shunt[4] gen_shunt_g4\[3\].u_shunt_p/ZN
+ vdd vss gf180mcu_fd_sc_mcu7t5v0__aoi21_4
XFILLER_23_453 vdd vss gf180mcu_fd_sc_mcu7t5v0__fill_2
XFILLER_37_73 vdd vss gf180mcu_fd_sc_mcu7t5v0__fillcap_64
Xgen_shunt_g2\[27\].u_shunt_n cap_shunt_n cap_shunt_n tune_shunt[6] gen_shunt_g2\[27\].u_shunt_n/ZN
+ vdd vss gf180mcu_fd_sc_mcu7t5v0__aoi21_4
Xgen_shunt_g1\[21\].u_shunt_p cap_shunt_p cap_shunt_p tune_shunt[7] gen_shunt_g1\[21\].u_shunt_p/ZN
+ vdd vss gf180mcu_fd_sc_mcu7t5v0__aoi21_4
XFILLER_18_247 vdd vss gf180mcu_fd_sc_mcu7t5v0__fill_1
XFILLER_18_258 vdd vss gf180mcu_fd_sc_mcu7t5v0__fillcap_4
XFILLER_41_250 vdd vss gf180mcu_fd_sc_mcu7t5v0__fill_2
Xgen_shunt_g1\[117\].u_shunt_p cap_shunt_p cap_shunt_p tune_shunt[7] gen_shunt_g1\[117\].u_shunt_p/ZN
+ vdd vss gf180mcu_fd_sc_mcu7t5v0__aoi21_4
Xgen_series_gy_g1\[5\].u_series_gyn1 cap_series_gyn cap_series_gyn tune_series_gy[5]
+ gen_series_gy_g1\[5\].u_series_gyn1/ZN vdd vss gf180mcu_fd_sc_mcu7t5v0__aoi21_4
XFILLER_6_630 vdd vss gf180mcu_fd_sc_mcu7t5v0__fill_2
XFILLER_6_685 vdd vss gf180mcu_fd_sc_mcu7t5v0__fill_2
Xgen_shunt_gy_g1\[7\].u_shunt_gyn2 cap_shunt_gyn cap_shunt_gyn tune_shunt_gy[5] gen_shunt_gy_g1\[7\].u_shunt_gyn2/ZN
+ vdd vss gf180mcu_fd_sc_mcu7t5v0__aoi21_1
XFILLER_37_567 vdd vss gf180mcu_fd_sc_mcu7t5v0__fill_1
XFILLER_32_250 vdd vss gf180mcu_fd_sc_mcu7t5v0__fill_1
XFILLER_28_534 vdd vss gf180mcu_fd_sc_mcu7t5v0__fillcap_64
Xgen_shunt_g2\[61\].u_shunt_p cap_shunt_p cap_shunt_p tune_shunt[6] gen_shunt_g2\[61\].u_shunt_p/ZN
+ vdd vss gf180mcu_fd_sc_mcu7t5v0__aoi21_4
XFILLER_23_283 vdd vss gf180mcu_fd_sc_mcu7t5v0__fill_1
Xgen_shunt_g8\[0\].u_shunt_p cap_shunt_p cap_shunt_p tune_shunt[0] gen_shunt_g8\[0\].u_shunt_p/ZN
+ vdd vss gf180mcu_fd_sc_mcu7t5v0__aoi21_4
XFILLER_3_666 vdd vss gf180mcu_fd_sc_mcu7t5v0__fill_2
XFILLER_2_187 vdd vss gf180mcu_fd_sc_mcu7t5v0__fillcap_4
XFILLER_2_176 vdd vss gf180mcu_fd_sc_mcu7t5v0__fill_1
Xgen_series_gy_g11\[0\].u_series_gyn1 cap_series_gyn cap_series_gyn tune_series_gy[4]
+ gen_series_gy_g11\[0\].u_series_gyn1/ZN vdd vss gf180mcu_fd_sc_mcu7t5v0__aoi21_4
XFILLER_9_44 vdd vss gf180mcu_fd_sc_mcu7t5v0__fill_2
XFILLER_14_250 vdd vss gf180mcu_fd_sc_mcu7t5v0__fillcap_4
XFILLER_37_353 vdd vss gf180mcu_fd_sc_mcu7t5v0__fill_2
XFILLER_33_570 vdd vss gf180mcu_fd_sc_mcu7t5v0__fillcap_64
Xgen_shunt_gy_g1\[3\].u_shunt_gyp2 cap_shunt_gyp cap_shunt_gyp tune_shunt_gy[5] gen_shunt_gy_g1\[3\].u_shunt_gyp2/ZN
+ vdd vss gf180mcu_fd_sc_mcu7t5v0__aoi21_1
Xgen_series_gy_g11\[11\].u_series_gyn1 cap_series_gyn cap_series_gyn tune_series_gy[4]
+ gen_series_gy_g11\[11\].u_series_gyn1/ZN vdd vss gf180mcu_fd_sc_mcu7t5v0__aoi21_4
Xgen_shunt_gygy_g2\[3\].u_shunt_gyn1 cap_series_gygyn cap_series_gygyn tune_series_gygy[4]
+ gen_shunt_gygy_g2\[3\].u_shunt_gyn1/ZN vdd vss gf180mcu_fd_sc_mcu7t5v0__aoi21_4
Xgen_shunt_g1\[88\].u_shunt_n cap_shunt_n cap_shunt_n tune_shunt[7] gen_shunt_g1\[88\].u_shunt_n/ZN
+ vdd vss gf180mcu_fd_sc_mcu7t5v0__aoi21_4
XFILLER_18_53 vdd vss gf180mcu_fd_sc_mcu7t5v0__fill_2
Xgen_shunt_g2\[10\].u_shunt_p cap_shunt_p cap_shunt_p tune_shunt[6] gen_shunt_g2\[10\].u_shunt_p/ZN
+ vdd vss gf180mcu_fd_sc_mcu7t5v0__aoi21_4
Xgen_shunt_g3\[16\].u_shunt_n cap_shunt_n cap_shunt_n tune_shunt[5] gen_shunt_g3\[16\].u_shunt_n/ZN
+ vdd vss gf180mcu_fd_sc_mcu7t5v0__aoi21_4
XFILLER_16_559 vdd vss gf180mcu_fd_sc_mcu7t5v0__fill_2
XTAP_507 vdd vss gf180mcu_fd_sc_mcu7t5v0__filltie
XFILLER_7_279 vdd vss gf180mcu_fd_sc_mcu7t5v0__fillcap_4
XFILLER_11_286 vdd vss gf180mcu_fd_sc_mcu7t5v0__fill_1
XFILLER_3_496 vdd vss gf180mcu_fd_sc_mcu7t5v0__fill_1
XFILLER_34_301 vdd vss gf180mcu_fd_sc_mcu7t5v0__fillcap_16
Xgen_shunt_g2\[29\].u_shunt_p cap_shunt_p cap_shunt_p tune_shunt[6] gen_shunt_g2\[29\].u_shunt_p/ZN
+ vdd vss gf180mcu_fd_sc_mcu7t5v0__aoi21_4
XFILLER_15_570 vdd vss gf180mcu_fd_sc_mcu7t5v0__fill_1
Xgen_shunt_g4\[0\].u_shunt_n cap_shunt_n cap_shunt_n tune_shunt[4] gen_shunt_g4\[0\].u_shunt_n/ZN
+ vdd vss gf180mcu_fd_sc_mcu7t5v0__aoi21_4
XFILLER_38_684 vdd vss gf180mcu_fd_sc_mcu7t5v0__fillcap_4
XFILLER_38_673 vdd vss gf180mcu_fd_sc_mcu7t5v0__fill_1
Xgen_shunt_g1\[114\].u_shunt_n cap_shunt_n cap_shunt_n tune_shunt[7] gen_shunt_g1\[114\].u_shunt_n/ZN
+ vdd vss gf180mcu_fd_sc_mcu7t5v0__aoi21_4
XFILLER_21_595 vdd vss gf180mcu_fd_sc_mcu7t5v0__fill_2
Xgen_shunt_g1\[37\].u_shunt_n cap_shunt_n cap_shunt_n tune_shunt[7] gen_shunt_g1\[37\].u_shunt_n/ZN
+ vdd vss gf180mcu_fd_sc_mcu7t5v0__aoi21_4
XFILLER_0_422 vdd vss gf180mcu_fd_sc_mcu7t5v0__fill_1
XFILLER_29_673 vdd vss gf180mcu_fd_sc_mcu7t5v0__fillcap_8
XFILLER_28_150 vdd vss gf180mcu_fd_sc_mcu7t5v0__fill_2
XFILLER_31_337 vdd vss gf180mcu_fd_sc_mcu7t5v0__fillcap_16
XFILLER_6_34 vdd vss gf180mcu_fd_sc_mcu7t5v0__fill_1
XFILLER_8_522 vdd vss gf180mcu_fd_sc_mcu7t5v0__fill_1
XFILLER_12_595 vdd vss gf180mcu_fd_sc_mcu7t5v0__fillcap_8
XTAP_348 vdd vss gf180mcu_fd_sc_mcu7t5v0__filltie
XTAP_337 vdd vss gf180mcu_fd_sc_mcu7t5v0__filltie
XTAP_326 vdd vss gf180mcu_fd_sc_mcu7t5v0__filltie
XTAP_315 vdd vss gf180mcu_fd_sc_mcu7t5v0__filltie
XTAP_304 vdd vss gf180mcu_fd_sc_mcu7t5v0__filltie
XTAP_359 vdd vss gf180mcu_fd_sc_mcu7t5v0__filltie
Xgen_series_gy_g1\[20\].u_series_gyn1 cap_series_gyn cap_series_gyn tune_series_gy[5]
+ gen_series_gy_g1\[20\].u_series_gyn1/ZN vdd vss gf180mcu_fd_sc_mcu7t5v0__aoi21_4
XFILLER_35_687 vdd vss gf180mcu_fd_sc_mcu7t5v0__fill_1
XFILLER_30_392 vdd vss gf180mcu_fd_sc_mcu7t5v0__fill_1
Xgen_shunt_g1\[71\].u_shunt_p cap_shunt_p cap_shunt_p tune_shunt[7] gen_shunt_g1\[71\].u_shunt_p/ZN
+ vdd vss gf180mcu_fd_sc_mcu7t5v0__aoi21_4
XFILLER_40_101 vdd vss gf180mcu_fd_sc_mcu7t5v0__fillcap_4
XFILLER_26_676 vdd vss gf180mcu_fd_sc_mcu7t5v0__fillcap_8
XFILLER_25_186 vdd vss gf180mcu_fd_sc_mcu7t5v0__fill_2
XFILLER_13_337 vdd vss gf180mcu_fd_sc_mcu7t5v0__fillcap_16
XFILLER_5_558 vdd vss gf180mcu_fd_sc_mcu7t5v0__fill_1
XFILLER_17_621 vdd vss gf180mcu_fd_sc_mcu7t5v0__fillcap_16
XFILLER_32_602 vdd vss gf180mcu_fd_sc_mcu7t5v0__fill_1
Xgen_shunt_g3\[18\].u_shunt_p cap_shunt_p cap_shunt_p tune_shunt[5] gen_shunt_g3\[18\].u_shunt_p/ZN
+ vdd vss gf180mcu_fd_sc_mcu7t5v0__aoi21_4
XFILLER_12_392 vdd vss gf180mcu_fd_sc_mcu7t5v0__fill_1
XFILLER_39_212 vdd vss gf180mcu_fd_sc_mcu7t5v0__fill_1
XTAP_134 vdd vss gf180mcu_fd_sc_mcu7t5v0__filltie
XTAP_123 vdd vss gf180mcu_fd_sc_mcu7t5v0__filltie
XTAP_112 vdd vss gf180mcu_fd_sc_mcu7t5v0__filltie
XTAP_101 vdd vss gf180mcu_fd_sc_mcu7t5v0__filltie
XTAP_145 vdd vss gf180mcu_fd_sc_mcu7t5v0__filltie
XTAP_156 vdd vss gf180mcu_fd_sc_mcu7t5v0__filltie
XTAP_167 vdd vss gf180mcu_fd_sc_mcu7t5v0__filltie
XTAP_178 vdd vss gf180mcu_fd_sc_mcu7t5v0__filltie
XTAP_189 vdd vss gf180mcu_fd_sc_mcu7t5v0__filltie
XFILLER_39_256 vdd vss gf180mcu_fd_sc_mcu7t5v0__fill_2
Xgen_shunt_g4\[2\].u_shunt_p cap_shunt_p cap_shunt_p tune_shunt[4] gen_shunt_g4\[2\].u_shunt_p/ZN
+ vdd vss gf180mcu_fd_sc_mcu7t5v0__aoi21_4
XFILLER_10_318 vdd vss gf180mcu_fd_sc_mcu7t5v0__fill_1
Xgen_shunt_g2\[26\].u_shunt_n cap_shunt_n cap_shunt_n tune_shunt[6] gen_shunt_g2\[26\].u_shunt_n/ZN
+ vdd vss gf180mcu_fd_sc_mcu7t5v0__aoi21_4
Xgen_shunt_g1\[20\].u_shunt_p cap_shunt_p cap_shunt_p tune_shunt[7] gen_shunt_g1\[20\].u_shunt_p/ZN
+ vdd vss gf180mcu_fd_sc_mcu7t5v0__aoi21_4
XFILLER_41_421 vdd vss gf180mcu_fd_sc_mcu7t5v0__fillcap_4
XFILLER_26_53 vdd vss gf180mcu_fd_sc_mcu7t5v0__fill_2
Xgen_shunt_g1\[116\].u_shunt_p cap_shunt_p cap_shunt_p tune_shunt[7] gen_shunt_g1\[116\].u_shunt_p/ZN
+ vdd vss gf180mcu_fd_sc_mcu7t5v0__aoi21_4
XFILLER_5_311 vdd vss gf180mcu_fd_sc_mcu7t5v0__fill_2
Xgen_shunt_g1\[39\].u_shunt_p cap_shunt_p cap_shunt_p tune_shunt[7] gen_shunt_g1\[39\].u_shunt_p/ZN
+ vdd vss gf180mcu_fd_sc_mcu7t5v0__aoi21_4
XFILLER_1_550 vdd vss gf180mcu_fd_sc_mcu7t5v0__fill_2
XFILLER_32_443 vdd vss gf180mcu_fd_sc_mcu7t5v0__fillcap_16
XFILLER_20_605 vdd vss gf180mcu_fd_sc_mcu7t5v0__fill_1
XFILLER_17_495 vdd vss gf180mcu_fd_sc_mcu7t5v0__fill_2
XFILLER_27_215 vdd vss gf180mcu_fd_sc_mcu7t5v0__fillcap_16
Xgen_shunt_g2\[60\].u_shunt_p cap_shunt_p cap_shunt_p tune_shunt[6] gen_shunt_g2\[60\].u_shunt_p/ZN
+ vdd vss gf180mcu_fd_sc_mcu7t5v0__aoi21_4
XFILLER_6_108 vdd vss gf180mcu_fd_sc_mcu7t5v0__fillcap_16
XFILLER_14_443 vdd vss gf180mcu_fd_sc_mcu7t5v0__fillcap_16
XFILLER_5_141 vdd vss gf180mcu_fd_sc_mcu7t5v0__fill_1
Xgen_shunt_g1\[87\].u_shunt_n cap_shunt_n cap_shunt_n tune_shunt[7] gen_shunt_g1\[87\].u_shunt_n/ZN
+ vdd vss gf180mcu_fd_sc_mcu7t5v0__aoi21_4
Xgen_shunt_g3\[15\].u_shunt_n cap_shunt_n cap_shunt_n tune_shunt[5] gen_shunt_g3\[15\].u_shunt_n/ZN
+ vdd vss gf180mcu_fd_sc_mcu7t5v0__aoi21_4
XFILLER_11_424 vdd vss gf180mcu_fd_sc_mcu7t5v0__fill_2
XFILLER_7_428 vdd vss gf180mcu_fd_sc_mcu7t5v0__fill_1
XFILLER_11_479 vdd vss gf180mcu_fd_sc_mcu7t5v0__fillcap_16
XFILLER_3_2 vdd vss gf180mcu_fd_sc_mcu7t5v0__fillcap_16
XFILLER_19_524 vdd vss gf180mcu_fd_sc_mcu7t5v0__fill_2
XFILLER_34_527 vdd vss gf180mcu_fd_sc_mcu7t5v0__fillcap_4
Xgen_shunt_g2\[28\].u_shunt_p cap_shunt_p cap_shunt_p tune_shunt[6] gen_shunt_g2\[28\].u_shunt_p/ZN
+ vdd vss gf180mcu_fd_sc_mcu7t5v0__aoi21_4
XFILLER_0_69 vdd vss gf180mcu_fd_sc_mcu7t5v0__fill_1
XFILLER_9_89 vdd vss gf180mcu_fd_sc_mcu7t5v0__fill_2
XFILLER_36_2 vdd vss gf180mcu_fd_sc_mcu7t5v0__fillcap_32
Xgen_shunt_g1\[113\].u_shunt_n cap_shunt_n cap_shunt_n tune_shunt[7] gen_shunt_g1\[113\].u_shunt_n/ZN
+ vdd vss gf180mcu_fd_sc_mcu7t5v0__aoi21_4
Xgen_shunt_gy_g1\[3\].u_shunt_gyn1 cap_shunt_gyn cap_shunt_gyn tune_shunt_gy[6] gen_shunt_gy_g1\[3\].u_shunt_gyn1/ZN
+ vdd vss gf180mcu_fd_sc_mcu7t5v0__aoi21_1
XFILLER_20_221 vdd vss gf180mcu_fd_sc_mcu7t5v0__fill_2
Xgen_shunt_g1\[36\].u_shunt_n cap_shunt_n cap_shunt_n tune_shunt[7] gen_shunt_g1\[36\].u_shunt_n/ZN
+ vdd vss gf180mcu_fd_sc_mcu7t5v0__aoi21_4
XFILLER_28_321 vdd vss gf180mcu_fd_sc_mcu7t5v0__fill_1
XFILLER_34_53 vdd vss gf180mcu_fd_sc_mcu7t5v0__fill_2
XTAP_508 vdd vss gf180mcu_fd_sc_mcu7t5v0__filltie
XFILLER_3_453 vdd vss gf180mcu_fd_sc_mcu7t5v0__fill_2
XFILLER_19_354 vdd vss gf180mcu_fd_sc_mcu7t5v0__fill_1
XFILLER_34_346 vdd vss gf180mcu_fd_sc_mcu7t5v0__fill_2
XFILLER_30_530 vdd vss gf180mcu_fd_sc_mcu7t5v0__fill_2
Xgen_shunt_g1\[70\].u_shunt_p cap_shunt_p cap_shunt_p tune_shunt[7] gen_shunt_g1\[70\].u_shunt_p/ZN
+ vdd vss gf180mcu_fd_sc_mcu7t5v0__aoi21_4
XFILLER_25_357 vdd vss gf180mcu_fd_sc_mcu7t5v0__fill_1
Xgen_shunt_gygy_g1\[5\].u_shunt_gyp1 cap_series_gygyp cap_series_gygyp tune_series_gygy[5]
+ gen_shunt_gygy_g1\[5\].u_shunt_gyp1/ZN vdd vss gf180mcu_fd_sc_mcu7t5v0__aoi21_4
XFILLER_0_412 vdd vss gf180mcu_fd_sc_mcu7t5v0__fillcap_8
XFILLER_29_641 vdd vss gf180mcu_fd_sc_mcu7t5v0__fillcap_32
Xgen_shunt_g1\[89\].u_shunt_p cap_shunt_p cap_shunt_p tune_shunt[7] gen_shunt_g1\[89\].u_shunt_p/ZN
+ vdd vss gf180mcu_fd_sc_mcu7t5v0__aoi21_4
XFILLER_29_685 vdd vss gf180mcu_fd_sc_mcu7t5v0__fill_2
XFILLER_28_195 vdd vss gf180mcu_fd_sc_mcu7t5v0__fill_2
XFILLER_16_346 vdd vss gf180mcu_fd_sc_mcu7t5v0__fill_2
Xgen_series_gy_g2\[1\].u_series_gyp1 cap_series_gyp cap_series_gyp tune_series_gy[3]
+ gen_series_gy_g2\[1\].u_series_gyp1/ZN vdd vss gf180mcu_fd_sc_mcu7t5v0__aoi21_4
Xgen_shunt_g3\[17\].u_shunt_p cap_shunt_p cap_shunt_p tune_shunt[5] gen_shunt_g3\[17\].u_shunt_p/ZN
+ vdd vss gf180mcu_fd_sc_mcu7t5v0__aoi21_4
XFILLER_8_534 vdd vss gf180mcu_fd_sc_mcu7t5v0__fill_1
XFILLER_12_585 vdd vss gf180mcu_fd_sc_mcu7t5v0__fill_2
XTAP_349 vdd vss gf180mcu_fd_sc_mcu7t5v0__filltie
XTAP_338 vdd vss gf180mcu_fd_sc_mcu7t5v0__filltie
XTAP_327 vdd vss gf180mcu_fd_sc_mcu7t5v0__filltie
XTAP_316 vdd vss gf180mcu_fd_sc_mcu7t5v0__filltie
XTAP_305 vdd vss gf180mcu_fd_sc_mcu7t5v0__filltie
XFILLER_3_283 vdd vss gf180mcu_fd_sc_mcu7t5v0__fill_1
XFILLER_6_79 vdd vss gf180mcu_fd_sc_mcu7t5v0__fill_2
Xgen_shunt_g4\[1\].u_shunt_p cap_shunt_p cap_shunt_p tune_shunt[4] gen_shunt_g4\[1\].u_shunt_p/ZN
+ vdd vss gf180mcu_fd_sc_mcu7t5v0__aoi21_4
XFILLER_34_176 vdd vss gf180mcu_fd_sc_mcu7t5v0__fill_1
Xgen_shunt_g2\[25\].u_shunt_n cap_shunt_n cap_shunt_n tune_shunt[6] gen_shunt_g2\[25\].u_shunt_n/ZN
+ vdd vss gf180mcu_fd_sc_mcu7t5v0__aoi21_4
XFILLER_38_460 vdd vss gf180mcu_fd_sc_mcu7t5v0__fill_1
Xgen_shunt_g1\[115\].u_shunt_p cap_shunt_p cap_shunt_p tune_shunt[7] gen_shunt_g1\[115\].u_shunt_p/ZN
+ vdd vss gf180mcu_fd_sc_mcu7t5v0__aoi21_4
XFILLER_15_44 vdd vss gf180mcu_fd_sc_mcu7t5v0__fill_2
XFILLER_40_179 vdd vss gf180mcu_fd_sc_mcu7t5v0__fillcap_16
XFILLER_21_382 vdd vss gf180mcu_fd_sc_mcu7t5v0__fill_2
Xgen_shunt_g1\[38\].u_shunt_p cap_shunt_p cap_shunt_p tune_shunt[7] gen_shunt_g1\[38\].u_shunt_p/ZN
+ vdd vss gf180mcu_fd_sc_mcu7t5v0__aoi21_4
XFILLER_32_669 vdd vss gf180mcu_fd_sc_mcu7t5v0__fillcap_4
XFILLER_16_176 vdd vss gf180mcu_fd_sc_mcu7t5v0__fill_1
XFILLER_17_666 vdd vss gf180mcu_fd_sc_mcu7t5v0__fillcap_16
XFILLER_27_408 vdd vss gf180mcu_fd_sc_mcu7t5v0__fillcap_16
XTAP_135 vdd vss gf180mcu_fd_sc_mcu7t5v0__filltie
XTAP_124 vdd vss gf180mcu_fd_sc_mcu7t5v0__filltie
XTAP_113 vdd vss gf180mcu_fd_sc_mcu7t5v0__filltie
XTAP_102 vdd vss gf180mcu_fd_sc_mcu7t5v0__filltie
XTAP_146 vdd vss gf180mcu_fd_sc_mcu7t5v0__filltie
XTAP_157 vdd vss gf180mcu_fd_sc_mcu7t5v0__filltie
XTAP_168 vdd vss gf180mcu_fd_sc_mcu7t5v0__filltie
XTAP_179 vdd vss gf180mcu_fd_sc_mcu7t5v0__filltie
XFILLER_35_496 vdd vss gf180mcu_fd_sc_mcu7t5v0__fill_1
XFILLER_22_124 vdd vss gf180mcu_fd_sc_mcu7t5v0__fill_2
XFILLER_22_179 vdd vss gf180mcu_fd_sc_mcu7t5v0__fillcap_16
Xgen_series_gy_g1\[0\].u_series_gyn1 cap_series_gyn cap_series_gyn tune_series_gy[5]
+ gen_series_gy_g1\[0\].u_series_gyn1/ZN vdd vss gf180mcu_fd_sc_mcu7t5v0__aoi21_4
Xgen_series_gy_g2\[6\].u_series_gyn1 cap_series_gyn cap_series_gyn tune_series_gy[3]
+ gen_series_gy_g2\[6\].u_series_gyn1/ZN vdd vss gf180mcu_fd_sc_mcu7t5v0__aoi21_4
XFILLER_41_499 vdd vss gf180mcu_fd_sc_mcu7t5v0__fillcap_64
XFILLER_26_463 vdd vss gf180mcu_fd_sc_mcu7t5v0__fill_1
XFILLER_1_595 vdd vss gf180mcu_fd_sc_mcu7t5v0__fill_2
XFILLER_32_488 vdd vss gf180mcu_fd_sc_mcu7t5v0__fill_2
XFILLER_8_150 vdd vss gf180mcu_fd_sc_mcu7t5v0__fill_2
XFILLER_9_684 vdd vss gf180mcu_fd_sc_mcu7t5v0__fillcap_4
Xgen_shunt_g1\[86\].u_shunt_n cap_shunt_n cap_shunt_n tune_shunt[7] gen_shunt_g1\[86\].u_shunt_n/ZN
+ vdd vss gf180mcu_fd_sc_mcu7t5v0__aoi21_4
XFILLER_35_282 vdd vss gf180mcu_fd_sc_mcu7t5v0__fill_2
XFILLER_23_499 vdd vss gf180mcu_fd_sc_mcu7t5v0__fill_1
XFILLER_10_105 vdd vss gf180mcu_fd_sc_mcu7t5v0__fill_1
Xgen_shunt_g3\[14\].u_shunt_n cap_shunt_n cap_shunt_n tune_shunt[5] gen_shunt_g3\[14\].u_shunt_n/ZN
+ vdd vss gf180mcu_fd_sc_mcu7t5v0__aoi21_4
XFILLER_12_34 vdd vss gf180mcu_fd_sc_mcu7t5v0__fill_1
XFILLER_2_337 vdd vss gf180mcu_fd_sc_mcu7t5v0__fillcap_4
Xgen_shunt_g2\[27\].u_shunt_p cap_shunt_p cap_shunt_p tune_shunt[6] gen_shunt_g2\[27\].u_shunt_p/ZN
+ vdd vss gf180mcu_fd_sc_mcu7t5v0__aoi21_4
XFILLER_14_488 vdd vss gf180mcu_fd_sc_mcu7t5v0__fill_2
XFILLER_5_186 vdd vss gf180mcu_fd_sc_mcu7t5v0__fill_2
XFILLER_6_676 vdd vss gf180mcu_fd_sc_mcu7t5v0__fill_1
XFILLER_6_687 vdd vss gf180mcu_fd_sc_mcu7t5v0__fill_1
Xgen_shunt_g1\[112\].u_shunt_n cap_shunt_n cap_shunt_n tune_shunt[7] gen_shunt_g1\[112\].u_shunt_n/ZN
+ vdd vss gf180mcu_fd_sc_mcu7t5v0__aoi21_4
Xgen_shunt_g1\[35\].u_shunt_n cap_shunt_n cap_shunt_n tune_shunt[7] gen_shunt_g1\[35\].u_shunt_n/ZN
+ vdd vss gf180mcu_fd_sc_mcu7t5v0__aoi21_4
XFILLER_28_514 vdd vss gf180mcu_fd_sc_mcu7t5v0__fillcap_16
XFILLER_23_44 vdd vss gf180mcu_fd_sc_mcu7t5v0__fill_2
XFILLER_0_37 vdd vss gf180mcu_fd_sc_mcu7t5v0__fillcap_8
XFILLER_42_594 vdd vss gf180mcu_fd_sc_mcu7t5v0__fill_1
XFILLER_29_2 vdd vss gf180mcu_fd_sc_mcu7t5v0__fillcap_16
XFILLER_37_311 vdd vss gf180mcu_fd_sc_mcu7t5v0__fill_2
Xgen_shunt_gy_g1\[3\].u_shunt_gyn2 cap_shunt_gyn cap_shunt_gyn tune_shunt_gy[5] gen_shunt_gy_g1\[3\].u_shunt_gyn2/ZN
+ vdd vss gf180mcu_fd_sc_mcu7t5v0__aoi21_1
XFILLER_20_288 vdd vss gf180mcu_fd_sc_mcu7t5v0__fillcap_4
Xgen_shunt_g1\[88\].u_shunt_p cap_shunt_p cap_shunt_p tune_shunt[7] gen_shunt_g1\[88\].u_shunt_p/ZN
+ vdd vss gf180mcu_fd_sc_mcu7t5v0__aoi21_4
XFILLER_28_388 vdd vss gf180mcu_fd_sc_mcu7t5v0__fill_2
Xgen_shunt_g3\[16\].u_shunt_p cap_shunt_p cap_shunt_p tune_shunt[5] gen_shunt_g3\[16\].u_shunt_p/ZN
+ vdd vss gf180mcu_fd_sc_mcu7t5v0__aoi21_4
XFILLER_7_215 vdd vss gf180mcu_fd_sc_mcu7t5v0__fillcap_8
XFILLER_11_255 vdd vss gf180mcu_fd_sc_mcu7t5v0__fill_2
XTAP_509 vdd vss gf180mcu_fd_sc_mcu7t5v0__filltie
XFILLER_3_487 vdd vss gf180mcu_fd_sc_mcu7t5v0__fill_1
XFILLER_38_108 vdd vss gf180mcu_fd_sc_mcu7t5v0__fillcap_16
XFILLER_19_344 vdd vss gf180mcu_fd_sc_mcu7t5v0__fillcap_8
Xgen_shunt_g4\[0\].u_shunt_p cap_shunt_p cap_shunt_p tune_shunt[4] gen_shunt_g4\[0\].u_shunt_p/ZN
+ vdd vss gf180mcu_fd_sc_mcu7t5v0__aoi21_4
XFILLER_15_550 vdd vss gf180mcu_fd_sc_mcu7t5v0__fillcap_8
Xgen_shunt_g2\[24\].u_shunt_n cap_shunt_n cap_shunt_n tune_shunt[6] gen_shunt_g2\[24\].u_shunt_n/ZN
+ vdd vss gf180mcu_fd_sc_mcu7t5v0__aoi21_4
XFILLER_40_317 vdd vss gf180mcu_fd_sc_mcu7t5v0__fill_2
XFILLER_37_141 vdd vss gf180mcu_fd_sc_mcu7t5v0__fill_1
Xgen_shunt_g1\[114\].u_shunt_p cap_shunt_p cap_shunt_p tune_shunt[7] gen_shunt_g1\[114\].u_shunt_p/ZN
+ vdd vss gf180mcu_fd_sc_mcu7t5v0__aoi21_4
XFILLER_20_34 vdd vss gf180mcu_fd_sc_mcu7t5v0__fill_1
Xgen_shunt_g1\[37\].u_shunt_p cap_shunt_p cap_shunt_p tune_shunt[7] gen_shunt_g1\[37\].u_shunt_p/ZN
+ vdd vss gf180mcu_fd_sc_mcu7t5v0__aoi21_4
XFILLER_0_457 vdd vss gf180mcu_fd_sc_mcu7t5v0__fill_1
XFILLER_12_531 vdd vss gf180mcu_fd_sc_mcu7t5v0__fill_1
XFILLER_39_428 vdd vss gf180mcu_fd_sc_mcu7t5v0__fillcap_64
XTAP_339 vdd vss gf180mcu_fd_sc_mcu7t5v0__filltie
XTAP_328 vdd vss gf180mcu_fd_sc_mcu7t5v0__filltie
XTAP_317 vdd vss gf180mcu_fd_sc_mcu7t5v0__filltie
XTAP_306 vdd vss gf180mcu_fd_sc_mcu7t5v0__filltie
XFILLER_35_634 vdd vss gf180mcu_fd_sc_mcu7t5v0__fillcap_4
XFILLER_19_141 vdd vss gf180mcu_fd_sc_mcu7t5v0__fill_1
XFILLER_30_372 vdd vss gf180mcu_fd_sc_mcu7t5v0__fillcap_16
XFILLER_22_317 vdd vss gf180mcu_fd_sc_mcu7t5v0__fill_2
XFILLER_26_601 vdd vss gf180mcu_fd_sc_mcu7t5v0__fill_2
XFILLER_25_144 vdd vss gf180mcu_fd_sc_mcu7t5v0__fillcap_16
XFILLER_15_89 vdd vss gf180mcu_fd_sc_mcu7t5v0__fill_2
XFILLER_31_44 vdd vss gf180mcu_fd_sc_mcu7t5v0__fill_2
XFILLER_0_276 vdd vss gf180mcu_fd_sc_mcu7t5v0__fillcap_4
Xgen_shunt_g3\[9\].u_shunt_n cap_shunt_n cap_shunt_n tune_shunt[5] gen_shunt_g3\[9\].u_shunt_n/ZN
+ vdd vss gf180mcu_fd_sc_mcu7t5v0__aoi21_4
XFILLER_8_321 vdd vss gf180mcu_fd_sc_mcu7t5v0__fill_1
XFILLER_12_372 vdd vss gf180mcu_fd_sc_mcu7t5v0__fillcap_16
XTAP_114 vdd vss gf180mcu_fd_sc_mcu7t5v0__filltie
XTAP_103 vdd vss gf180mcu_fd_sc_mcu7t5v0__filltie
Xgen_shunt_g1\[85\].u_shunt_n cap_shunt_n cap_shunt_n tune_shunt[7] gen_shunt_g1\[85\].u_shunt_n/ZN
+ vdd vss gf180mcu_fd_sc_mcu7t5v0__aoi21_4
XTAP_136 vdd vss gf180mcu_fd_sc_mcu7t5v0__filltie
XTAP_125 vdd vss gf180mcu_fd_sc_mcu7t5v0__filltie
XTAP_147 vdd vss gf180mcu_fd_sc_mcu7t5v0__filltie
XTAP_158 vdd vss gf180mcu_fd_sc_mcu7t5v0__filltie
XTAP_169 vdd vss gf180mcu_fd_sc_mcu7t5v0__filltie
XFILLER_11_2 vdd vss gf180mcu_fd_sc_mcu7t5v0__fillcap_16
XFILLER_23_637 vdd vss gf180mcu_fd_sc_mcu7t5v0__fill_2
Xgen_shunt_g3\[13\].u_shunt_n cap_shunt_n cap_shunt_n tune_shunt[5] gen_shunt_g3\[13\].u_shunt_n/ZN
+ vdd vss gf180mcu_fd_sc_mcu7t5v0__aoi21_4
XFILLER_31_681 vdd vss gf180mcu_fd_sc_mcu7t5v0__fillcap_4
Xgen_shunt_g2\[26\].u_shunt_p cap_shunt_p cap_shunt_p tune_shunt[6] gen_shunt_g2\[26\].u_shunt_p/ZN
+ vdd vss gf180mcu_fd_sc_mcu7t5v0__aoi21_4
XFILLER_5_357 vdd vss gf180mcu_fd_sc_mcu7t5v0__fill_1
Xgen_shunt_g1\[111\].u_shunt_n cap_shunt_n cap_shunt_n tune_shunt[7] gen_shunt_g1\[111\].u_shunt_n/ZN
+ vdd vss gf180mcu_fd_sc_mcu7t5v0__aoi21_4
Xgen_series_gy_g1\[18\].u_series_gyp1 cap_series_gyp cap_series_gyp tune_series_gy[5]
+ gen_series_gy_g1\[18\].u_series_gyp1/ZN vdd vss gf180mcu_fd_sc_mcu7t5v0__aoi21_4
XFILLER_17_453 vdd vss gf180mcu_fd_sc_mcu7t5v0__fill_2
XFILLER_8_195 vdd vss gf180mcu_fd_sc_mcu7t5v0__fill_2
XFILLER_9_641 vdd vss gf180mcu_fd_sc_mcu7t5v0__fill_1
Xgen_shunt_g1\[34\].u_shunt_n cap_shunt_n cap_shunt_n tune_shunt[7] gen_shunt_g1\[34\].u_shunt_n/ZN
+ vdd vss gf180mcu_fd_sc_mcu7t5v0__aoi21_4
XFILLER_42_209 vdd vss gf180mcu_fd_sc_mcu7t5v0__fill_1
XFILLER_12_79 vdd vss gf180mcu_fd_sc_mcu7t5v0__fill_2
XFILLER_26_250 vdd vss gf180mcu_fd_sc_mcu7t5v0__fillcap_8
XFILLER_41_286 vdd vss gf180mcu_fd_sc_mcu7t5v0__fillcap_64
XFILLER_10_684 vdd vss gf180mcu_fd_sc_mcu7t5v0__fillcap_4
XFILLER_6_666 vdd vss gf180mcu_fd_sc_mcu7t5v0__fillcap_8
XFILLER_1_382 vdd vss gf180mcu_fd_sc_mcu7t5v0__fill_2
XFILLER_32_275 vdd vss gf180mcu_fd_sc_mcu7t5v0__fill_2
XFILLER_17_283 vdd vss gf180mcu_fd_sc_mcu7t5v0__fill_1
XFILLER_20_459 vdd vss gf180mcu_fd_sc_mcu7t5v0__fill_2
Xgen_shunt_g1\[87\].u_shunt_p cap_shunt_p cap_shunt_p tune_shunt[7] gen_shunt_g1\[87\].u_shunt_p/ZN
+ vdd vss gf180mcu_fd_sc_mcu7t5v0__aoi21_4
XFILLER_23_231 vdd vss gf180mcu_fd_sc_mcu7t5v0__fill_2
XFILLER_23_286 vdd vss gf180mcu_fd_sc_mcu7t5v0__fill_1
XFILLER_23_89 vdd vss gf180mcu_fd_sc_mcu7t5v0__fill_2
Xgen_shunt_g3\[15\].u_shunt_p cap_shunt_p cap_shunt_p tune_shunt[5] gen_shunt_g3\[15\].u_shunt_p/ZN
+ vdd vss gf180mcu_fd_sc_mcu7t5v0__aoi21_4
XFILLER_7_408 vdd vss gf180mcu_fd_sc_mcu7t5v0__fillcap_16
XFILLER_2_179 vdd vss gf180mcu_fd_sc_mcu7t5v0__fillcap_8
XFILLER_2_124 vdd vss gf180mcu_fd_sc_mcu7t5v0__fill_2
XFILLER_42_562 vdd vss gf180mcu_fd_sc_mcu7t5v0__fillcap_32
XFILLER_27_570 vdd vss gf180mcu_fd_sc_mcu7t5v0__fillcap_64
XFILLER_6_463 vdd vss gf180mcu_fd_sc_mcu7t5v0__fill_1
Xgen_shunt_g2\[23\].u_shunt_n cap_shunt_n cap_shunt_n tune_shunt[6] gen_shunt_g2\[23\].u_shunt_n/ZN
+ vdd vss gf180mcu_fd_sc_mcu7t5v0__aoi21_4
Xgen_shunt_g1\[113\].u_shunt_p cap_shunt_p cap_shunt_p tune_shunt[7] gen_shunt_g1\[113\].u_shunt_p/ZN
+ vdd vss gf180mcu_fd_sc_mcu7t5v0__aoi21_4
Xgen_shunt_g1\[36\].u_shunt_p cap_shunt_p cap_shunt_p tune_shunt[7] gen_shunt_g1\[36\].u_shunt_p/ZN
+ vdd vss gf180mcu_fd_sc_mcu7t5v0__aoi21_4
Xgen_series_gy_g3\[2\].u_series_gyp1 cap_series_gyp cap_series_gyp tune_series_gy[2]
+ gen_series_gy_g3\[2\].u_series_gyp1/ZN vdd vss gf180mcu_fd_sc_mcu7t5v0__aoi21_4
XFILLER_18_34 vdd vss gf180mcu_fd_sc_mcu7t5v0__fill_1
XFILLER_11_212 vdd vss gf180mcu_fd_sc_mcu7t5v0__fill_1
Xgen_series_gy_g11\[6\].u_series_gyp1 cap_series_gyp cap_series_gyp tune_series_gy[4]
+ gen_series_gy_g11\[6\].u_series_gyp1/ZN vdd vss gf180mcu_fd_sc_mcu7t5v0__aoi21_4
XFILLER_7_227 vdd vss gf180mcu_fd_sc_mcu7t5v0__fill_2
XFILLER_3_499 vdd vss gf180mcu_fd_sc_mcu7t5v0__fill_1
XFILLER_30_598 vdd vss gf180mcu_fd_sc_mcu7t5v0__fillcap_4
XFILLER_15_595 vdd vss gf180mcu_fd_sc_mcu7t5v0__fill_2
XFILLER_41_2 vdd vss gf180mcu_fd_sc_mcu7t5v0__fillcap_64
XFILLER_6_260 vdd vss gf180mcu_fd_sc_mcu7t5v0__fill_1
XFILLER_38_676 vdd vss gf180mcu_fd_sc_mcu7t5v0__fillcap_8
XFILLER_37_186 vdd vss gf180mcu_fd_sc_mcu7t5v0__fill_2
XFILLER_25_337 vdd vss gf180mcu_fd_sc_mcu7t5v0__fillcap_16
XFILLER_1_70 vdd vss gf180mcu_fd_sc_mcu7t5v0__fill_1
Xgen_shunt_gygy_g1\[5\].u_shunt_gyn1 cap_series_gygyn cap_series_gygyn tune_series_gygy[5]
+ gen_shunt_gygy_g1\[5\].u_shunt_gyn1/ZN vdd vss gf180mcu_fd_sc_mcu7t5v0__aoi21_4
XFILLER_29_44 vdd vss gf180mcu_fd_sc_mcu7t5v0__fill_2
XFILLER_20_79 vdd vss gf180mcu_fd_sc_mcu7t5v0__fill_2
XFILLER_0_447 vdd vss gf180mcu_fd_sc_mcu7t5v0__fillcap_8
XFILLER_29_687 vdd vss gf180mcu_fd_sc_mcu7t5v0__fill_1
Xgen_shunt_g3\[8\].u_shunt_n cap_shunt_n cap_shunt_n tune_shunt[5] gen_shunt_g3\[8\].u_shunt_n/ZN
+ vdd vss gf180mcu_fd_sc_mcu7t5v0__aoi21_4
XFILLER_24_392 vdd vss gf180mcu_fd_sc_mcu7t5v0__fill_1
XFILLER_8_514 vdd vss gf180mcu_fd_sc_mcu7t5v0__fillcap_8
Xgen_series_gy_g2\[1\].u_series_gyn1 cap_series_gyn cap_series_gyn tune_series_gy[3]
+ gen_series_gy_g2\[1\].u_series_gyn1/ZN vdd vss gf180mcu_fd_sc_mcu7t5v0__aoi21_4
Xgen_shunt_g1\[84\].u_shunt_n cap_shunt_n cap_shunt_n tune_shunt[7] gen_shunt_g1\[84\].u_shunt_n/ZN
+ vdd vss gf180mcu_fd_sc_mcu7t5v0__aoi21_4
XFILLER_6_37 vdd vss gf180mcu_fd_sc_mcu7t5v0__fillcap_16
XTAP_329 vdd vss gf180mcu_fd_sc_mcu7t5v0__filltie
XTAP_318 vdd vss gf180mcu_fd_sc_mcu7t5v0__filltie
XTAP_307 vdd vss gf180mcu_fd_sc_mcu7t5v0__filltie
Xgen_shunt_g3\[12\].u_shunt_n cap_shunt_n cap_shunt_n tune_shunt[5] gen_shunt_g3\[12\].u_shunt_n/ZN
+ vdd vss gf180mcu_fd_sc_mcu7t5v0__aoi21_4
XFILLER_19_186 vdd vss gf180mcu_fd_sc_mcu7t5v0__fill_2
Xgen_shunt_g2\[25\].u_shunt_p cap_shunt_p cap_shunt_p tune_shunt[6] gen_shunt_g2\[25\].u_shunt_p/ZN
+ vdd vss gf180mcu_fd_sc_mcu7t5v0__aoi21_4
XFILLER_41_638 vdd vss gf180mcu_fd_sc_mcu7t5v0__fill_1
XFILLER_40_148 vdd vss gf180mcu_fd_sc_mcu7t5v0__fillcap_4
XFILLER_31_89 vdd vss gf180mcu_fd_sc_mcu7t5v0__fill_2
Xgen_series_gy_g1\[26\].u_series_gyp1 cap_series_gyp cap_series_gyp tune_series_gy[5]
+ gen_series_gy_g1\[26\].u_series_gyp1/ZN vdd vss gf180mcu_fd_sc_mcu7t5v0__aoi21_4
XFILLER_0_244 vdd vss gf180mcu_fd_sc_mcu7t5v0__fill_1
Xgen_shunt_gygy_g1\[1\].u_shunt_gyp1 cap_series_gygyp cap_series_gygyp tune_series_gygy[5]
+ gen_shunt_gygy_g1\[1\].u_shunt_gyp1/ZN vdd vss gf180mcu_fd_sc_mcu7t5v0__aoi21_4
Xgen_shunt_g1\[110\].u_shunt_n cap_shunt_n cap_shunt_n tune_shunt[7] gen_shunt_g1\[110\].u_shunt_n/ZN
+ vdd vss gf180mcu_fd_sc_mcu7t5v0__aoi21_4
XFILLER_32_605 vdd vss gf180mcu_fd_sc_mcu7t5v0__fillcap_64
XFILLER_31_115 vdd vss gf180mcu_fd_sc_mcu7t5v0__fill_2
XFILLER_29_495 vdd vss gf180mcu_fd_sc_mcu7t5v0__fill_2
XFILLER_8_311 vdd vss gf180mcu_fd_sc_mcu7t5v0__fillcap_8
XFILLER_8_388 vdd vss gf180mcu_fd_sc_mcu7t5v0__fill_2
Xgen_shunt_g1\[33\].u_shunt_n cap_shunt_n cap_shunt_n tune_shunt[7] gen_shunt_g1\[33\].u_shunt_n/ZN
+ vdd vss gf180mcu_fd_sc_mcu7t5v0__aoi21_4
XTAP_137 vdd vss gf180mcu_fd_sc_mcu7t5v0__filltie
XTAP_126 vdd vss gf180mcu_fd_sc_mcu7t5v0__filltie
XTAP_115 vdd vss gf180mcu_fd_sc_mcu7t5v0__filltie
XTAP_104 vdd vss gf180mcu_fd_sc_mcu7t5v0__filltie
XTAP_148 vdd vss gf180mcu_fd_sc_mcu7t5v0__filltie
XFILLER_39_215 vdd vss gf180mcu_fd_sc_mcu7t5v0__fillcap_16
XTAP_159 vdd vss gf180mcu_fd_sc_mcu7t5v0__filltie
XFILLER_26_443 vdd vss gf180mcu_fd_sc_mcu7t5v0__fillcap_16
XFILLER_26_34 vdd vss gf180mcu_fd_sc_mcu7t5v0__fill_1
XFILLER_13_115 vdd vss gf180mcu_fd_sc_mcu7t5v0__fill_2
XFILLER_14_605 vdd vss gf180mcu_fd_sc_mcu7t5v0__fill_1
XFILLER_9_631 vdd vss gf180mcu_fd_sc_mcu7t5v0__fillcap_8
XFILLER_13_682 vdd vss gf180mcu_fd_sc_mcu7t5v0__fillcap_4
Xgen_shunt_g1\[86\].u_shunt_p cap_shunt_p cap_shunt_p tune_shunt[7] gen_shunt_g1\[86\].u_shunt_p/ZN
+ vdd vss gf180mcu_fd_sc_mcu7t5v0__aoi21_4
XFILLER_23_479 vdd vss gf180mcu_fd_sc_mcu7t5v0__fillcap_16
XFILLER_23_424 vdd vss gf180mcu_fd_sc_mcu7t5v0__fill_2