* NGSPICE file created from caparray_s1.ext - technology: gf180mcuC

* Black-box entry subcircuit for gf180mcu_fd_sc_mcu7t5v0__fill_2 abstract view
.subckt gf180mcu_fd_sc_mcu7t5v0__fill_2 VDD VSS
.ends

* Black-box entry subcircuit for gf180mcu_fd_sc_mcu7t5v0__fillcap_8 abstract view
.subckt gf180mcu_fd_sc_mcu7t5v0__fillcap_8 VDD VSS
.ends

* Black-box entry subcircuit for gf180mcu_fd_sc_mcu7t5v0__filltie abstract view
.subckt gf180mcu_fd_sc_mcu7t5v0__filltie VDD VSS
.ends

* Black-box entry subcircuit for gf180mcu_fd_sc_mcu7t5v0__fillcap_16 abstract view
.subckt gf180mcu_fd_sc_mcu7t5v0__fillcap_16 VDD VSS
.ends

* Black-box entry subcircuit for gf180mcu_fd_sc_mcu7t5v0__aoi21_4 abstract view
.subckt gf180mcu_fd_sc_mcu7t5v0__aoi21_4 A1 A2 B ZN VDD VSS
.ends

* Black-box entry subcircuit for gf180mcu_fd_sc_mcu7t5v0__fill_1 abstract view
.subckt gf180mcu_fd_sc_mcu7t5v0__fill_1 VDD VSS
.ends

* Black-box entry subcircuit for gf180mcu_fd_sc_mcu7t5v0__fillcap_32 abstract view
.subckt gf180mcu_fd_sc_mcu7t5v0__fillcap_32 VDD VSS
.ends

* Black-box entry subcircuit for gf180mcu_fd_sc_mcu7t5v0__fillcap_4 abstract view
.subckt gf180mcu_fd_sc_mcu7t5v0__fillcap_4 VDD VSS
.ends

* Black-box entry subcircuit for gf180mcu_fd_sc_mcu7t5v0__aoi21_1 abstract view
.subckt gf180mcu_fd_sc_mcu7t5v0__aoi21_1 A1 A2 B ZN VDD VSS
.ends

* Black-box entry subcircuit for gf180mcu_fd_sc_mcu7t5v0__fillcap_64 abstract view
.subckt gf180mcu_fd_sc_mcu7t5v0__fillcap_64 VDD VSS
.ends

* Black-box entry subcircuit for gf180mcu_fd_sc_mcu7t5v0__endcap abstract view
.subckt gf180mcu_fd_sc_mcu7t5v0__endcap VDD VSS
.ends

.subckt caparray_s1 cap_series_gygyn cap_series_gygyp cap_series_gyn cap_series_gyp
+ cap_shunt_gyn cap_shunt_gyp cap_shunt_n cap_shunt_p tune_series_gy[0] tune_series_gy[1]
+ tune_series_gy[2] tune_series_gy[3] tune_series_gy[4] tune_series_gy[5] tune_series_gygy[0]
+ tune_series_gygy[1] tune_series_gygy[2] tune_series_gygy[3] tune_series_gygy[4]
+ tune_series_gygy[5] tune_shunt[0] tune_shunt[1] tune_shunt[2] tune_shunt[3] tune_shunt[4]
+ tune_shunt[5] tune_shunt[6] tune_shunt[7] tune_shunt_gy[0] tune_shunt_gy[1] tune_shunt_gy[2]
+ tune_shunt_gy[3] tune_shunt_gy[4] tune_shunt_gy[5] tune_shunt_gy[6] vdd vss
XFILLER_54_258 vdd vss gf180mcu_fd_sc_mcu7t5v0__fill_2
XFILLER_54_236 vdd vss gf180mcu_fd_sc_mcu7t5v0__fillcap_8
XTAP_177 vdd vss gf180mcu_fd_sc_mcu7t5v0__filltie
XTAP_188 vdd vss gf180mcu_fd_sc_mcu7t5v0__filltie
XTAP_199 vdd vss gf180mcu_fd_sc_mcu7t5v0__filltie
XFILLER_39_211 vdd vss gf180mcu_fd_sc_mcu7t5v0__fill_2
XFILLER_39_266 vdd vss gf180mcu_fd_sc_mcu7t5v0__fillcap_16
Xgen_series_gy_g1\[12\].u_series_gyn1 cap_series_gyn cap_series_gyn tune_series_gy[5]
+ gen_series_gy_g1\[12\].u_series_gyn1/ZN vdd vss gf180mcu_fd_sc_mcu7t5v0__aoi21_4
XFILLER_10_317 vdd vss gf180mcu_fd_sc_mcu7t5v0__fill_2
XFILLER_22_133 vdd vss gf180mcu_fd_sc_mcu7t5v0__fill_2
Xgen_series_gy_g2\[6\].u_series_gyp1 cap_series_gyp cap_series_gyp tune_series_gy[3]
+ gen_series_gy_g2\[6\].u_series_gyp1/ZN vdd vss gf180mcu_fd_sc_mcu7t5v0__aoi21_4
Xgen_series_gy_g1\[0\].u_series_gyp1 cap_series_gyp cap_series_gyp tune_series_gy[5]
+ gen_series_gy_g1\[0\].u_series_gyp1/ZN vdd vss gf180mcu_fd_sc_mcu7t5v0__aoi21_4
Xgen_shunt_g1\[72\].u_shunt_p cap_shunt_p cap_shunt_p tune_shunt[7] gen_shunt_g1\[72\].u_shunt_p/ZN
+ vdd vss gf180mcu_fd_sc_mcu7t5v0__aoi21_4
XFILLER_13_144 vdd vss gf180mcu_fd_sc_mcu7t5v0__fillcap_16
XFILLER_3_45 vdd vss gf180mcu_fd_sc_mcu7t5v0__fill_1
XFILLER_3_89 vdd vss gf180mcu_fd_sc_mcu7t5v0__fill_2
Xgen_shunt_g3\[19\].u_shunt_p cap_shunt_p cap_shunt_p tune_shunt[5] gen_shunt_g3\[19\].u_shunt_p/ZN
+ vdd vss gf180mcu_fd_sc_mcu7t5v0__aoi21_4
XFILLER_47_18 vdd vss gf180mcu_fd_sc_mcu7t5v0__fill_2
Xgen_shunt_g4\[3\].u_shunt_p cap_shunt_p cap_shunt_p tune_shunt[4] gen_shunt_g4\[3\].u_shunt_p/ZN
+ vdd vss gf180mcu_fd_sc_mcu7t5v0__aoi21_4
XFILLER_50_250 vdd vss gf180mcu_fd_sc_mcu7t5v0__fillcap_32
XFILLER_10_103 vdd vss gf180mcu_fd_sc_mcu7t5v0__fill_2
Xgen_shunt_g2\[27\].u_shunt_n cap_shunt_n cap_shunt_n tune_shunt[6] gen_shunt_g2\[27\].u_shunt_n/ZN
+ vdd vss gf180mcu_fd_sc_mcu7t5v0__aoi21_4
Xgen_shunt_g1\[21\].u_shunt_p cap_shunt_p cap_shunt_p tune_shunt[7] gen_shunt_g1\[21\].u_shunt_p/ZN
+ vdd vss gf180mcu_fd_sc_mcu7t5v0__aoi21_4
XFILLER_37_73 vdd vss gf180mcu_fd_sc_mcu7t5v0__fillcap_4
XFILLER_26_291 vdd vss gf180mcu_fd_sc_mcu7t5v0__fill_2
Xgen_shunt_gy_g1\[7\].u_shunt_gyn2 cap_shunt_gyn cap_shunt_gyn tune_shunt_gy[5] gen_shunt_gy_g1\[7\].u_shunt_gyn2/ZN
+ vdd vss gf180mcu_fd_sc_mcu7t5v0__aoi21_1
Xgen_series_gy_g1\[5\].u_series_gyn1 cap_series_gyn cap_series_gyn tune_series_gy[5]
+ gen_series_gy_g1\[5\].u_series_gyn1/ZN vdd vss gf180mcu_fd_sc_mcu7t5v0__aoi21_4
XFILLER_32_250 vdd vss gf180mcu_fd_sc_mcu7t5v0__fill_1
XFILLER_23_283 vdd vss gf180mcu_fd_sc_mcu7t5v0__fill_1
Xgen_shunt_g8\[0\].u_shunt_p cap_shunt_p cap_shunt_p tune_shunt[0] gen_shunt_g8\[0\].u_shunt_p/ZN
+ vdd vss gf180mcu_fd_sc_mcu7t5v0__aoi21_4
XFILLER_2_176 vdd vss gf180mcu_fd_sc_mcu7t5v0__fill_1
XFILLER_64_71 vdd vss gf180mcu_fd_sc_mcu7t5v0__fillcap_32
XFILLER_14_250 vdd vss gf180mcu_fd_sc_mcu7t5v0__fill_1
XFILLER_43_2 vdd vss gf180mcu_fd_sc_mcu7t5v0__fillcap_16
XFILLER_64_172 vdd vss gf180mcu_fd_sc_mcu7t5v0__fillcap_4
Xgen_shunt_gy_g1\[3\].u_shunt_gyp2 cap_shunt_gyp cap_shunt_gyp tune_shunt_gy[5] gen_shunt_gy_g1\[3\].u_shunt_gyp2/ZN
+ vdd vss gf180mcu_fd_sc_mcu7t5v0__aoi21_1
Xgen_shunt_gygy_g2\[3\].u_shunt_gyn1 cap_series_gygyn cap_series_gygyn tune_series_gygy[4]
+ gen_shunt_gygy_g2\[3\].u_shunt_gyn1/ZN vdd vss gf180mcu_fd_sc_mcu7t5v0__aoi21_4
Xgen_shunt_g1\[88\].u_shunt_n cap_shunt_n cap_shunt_n tune_shunt[7] gen_shunt_g1\[88\].u_shunt_n/ZN
+ vdd vss gf180mcu_fd_sc_mcu7t5v0__aoi21_4
Xgen_shunt_g3\[16\].u_shunt_n cap_shunt_n cap_shunt_n tune_shunt[5] gen_shunt_g3\[16\].u_shunt_n/ZN
+ vdd vss gf180mcu_fd_sc_mcu7t5v0__aoi21_4
Xgen_shunt_g2\[10\].u_shunt_p cap_shunt_p cap_shunt_p tune_shunt[6] gen_shunt_g2\[10\].u_shunt_p/ZN
+ vdd vss gf180mcu_fd_sc_mcu7t5v0__aoi21_4
XFILLER_11_286 vdd vss gf180mcu_fd_sc_mcu7t5v0__fillcap_16
Xgen_shunt_g2\[29\].u_shunt_p cap_shunt_p cap_shunt_p tune_shunt[6] gen_shunt_g2\[29\].u_shunt_p/ZN
+ vdd vss gf180mcu_fd_sc_mcu7t5v0__aoi21_4
XFILLER_34_301 vdd vss gf180mcu_fd_sc_mcu7t5v0__fillcap_16
Xgen_shunt_g4\[0\].u_shunt_n cap_shunt_n cap_shunt_n tune_shunt[4] gen_shunt_g4\[0\].u_shunt_n/ZN
+ vdd vss gf180mcu_fd_sc_mcu7t5v0__aoi21_4
XFILLER_55_18 vdd vss gf180mcu_fd_sc_mcu7t5v0__fill_2
XFILLER_52_175 vdd vss gf180mcu_fd_sc_mcu7t5v0__fill_2
Xgen_shunt_g1\[37\].u_shunt_n cap_shunt_n cap_shunt_n tune_shunt[7] gen_shunt_g1\[37\].u_shunt_n/ZN
+ vdd vss gf180mcu_fd_sc_mcu7t5v0__aoi21_4
XFILLER_45_73 vdd vss gf180mcu_fd_sc_mcu7t5v0__fillcap_4
XTAP_348 vdd vss gf180mcu_fd_sc_mcu7t5v0__filltie
XTAP_337 vdd vss gf180mcu_fd_sc_mcu7t5v0__filltie
XFILLER_3_282 vdd vss gf180mcu_fd_sc_mcu7t5v0__fill_2
XTAP_304 vdd vss gf180mcu_fd_sc_mcu7t5v0__filltie
XTAP_315 vdd vss gf180mcu_fd_sc_mcu7t5v0__filltie
XTAP_326 vdd vss gf180mcu_fd_sc_mcu7t5v0__filltie
XTAP_359 vdd vss gf180mcu_fd_sc_mcu7t5v0__filltie
XFILLER_34_175 vdd vss gf180mcu_fd_sc_mcu7t5v0__fill_2
XFILLER_57_201 vdd vss gf180mcu_fd_sc_mcu7t5v0__fillcap_8
Xgen_shunt_g1\[71\].u_shunt_p cap_shunt_p cap_shunt_p tune_shunt[7] gen_shunt_g1\[71\].u_shunt_p/ZN
+ vdd vss gf180mcu_fd_sc_mcu7t5v0__aoi21_4
XFILLER_15_98 vdd vss gf180mcu_fd_sc_mcu7t5v0__fill_2
XFILLER_63_215 vdd vss gf180mcu_fd_sc_mcu7t5v0__fillcap_64
XFILLER_16_175 vdd vss gf180mcu_fd_sc_mcu7t5v0__fill_2
Xgen_shunt_g3\[18\].u_shunt_p cap_shunt_p cap_shunt_p tune_shunt[5] gen_shunt_g3\[18\].u_shunt_p/ZN
+ vdd vss gf180mcu_fd_sc_mcu7t5v0__aoi21_4
XTAP_178 vdd vss gf180mcu_fd_sc_mcu7t5v0__filltie
XTAP_167 vdd vss gf180mcu_fd_sc_mcu7t5v0__filltie
XTAP_156 vdd vss gf180mcu_fd_sc_mcu7t5v0__filltie
XTAP_145 vdd vss gf180mcu_fd_sc_mcu7t5v0__filltie
XTAP_189 vdd vss gf180mcu_fd_sc_mcu7t5v0__filltie
XFILLER_54_204 vdd vss gf180mcu_fd_sc_mcu7t5v0__fillcap_32
Xgen_series_gy_g1\[12\].u_series_gyn2 cap_series_gyn cap_series_gyn tune_series_gy[4]
+ gen_series_gy_g1\[12\].u_series_gyn2/ZN vdd vss gf180mcu_fd_sc_mcu7t5v0__aoi21_4
Xgen_shunt_g4\[2\].u_shunt_p cap_shunt_p cap_shunt_p tune_shunt[4] gen_shunt_g4\[2\].u_shunt_p/ZN
+ vdd vss gf180mcu_fd_sc_mcu7t5v0__aoi21_4
XFILLER_10_329 vdd vss gf180mcu_fd_sc_mcu7t5v0__fill_2
Xgen_series_gy_g1\[0\].u_series_gyp2 cap_series_gyp cap_series_gyp tune_series_gy[4]
+ gen_series_gy_g1\[0\].u_series_gyp2/ZN vdd vss gf180mcu_fd_sc_mcu7t5v0__aoi21_4
Xgen_shunt_g2\[26\].u_shunt_n cap_shunt_n cap_shunt_n tune_shunt[6] gen_shunt_g2\[26\].u_shunt_n/ZN
+ vdd vss gf180mcu_fd_sc_mcu7t5v0__aoi21_4
XFILLER_45_215 vdd vss gf180mcu_fd_sc_mcu7t5v0__fill_1
Xgen_shunt_g1\[20\].u_shunt_p cap_shunt_p cap_shunt_p tune_shunt[7] gen_shunt_g1\[20\].u_shunt_p/ZN
+ vdd vss gf180mcu_fd_sc_mcu7t5v0__aoi21_4
XFILLER_9_116 vdd vss gf180mcu_fd_sc_mcu7t5v0__fill_1
XFILLER_26_53 vdd vss gf180mcu_fd_sc_mcu7t5v0__fill_2
Xgen_shunt_g1\[39\].u_shunt_p cap_shunt_p cap_shunt_p tune_shunt[7] gen_shunt_g1\[39\].u_shunt_p/ZN
+ vdd vss gf180mcu_fd_sc_mcu7t5v0__aoi21_4
XFILLER_36_204 vdd vss gf180mcu_fd_sc_mcu7t5v0__fill_2
XFILLER_59_329 vdd vss gf180mcu_fd_sc_mcu7t5v0__fill_2
XFILLER_27_215 vdd vss gf180mcu_fd_sc_mcu7t5v0__fill_1
XFILLER_6_108 vdd vss gf180mcu_fd_sc_mcu7t5v0__fillcap_16
XFILLER_18_204 vdd vss gf180mcu_fd_sc_mcu7t5v0__fill_2
XFILLER_53_73 vdd vss gf180mcu_fd_sc_mcu7t5v0__fillcap_16
XFILLER_41_240 vdd vss gf180mcu_fd_sc_mcu7t5v0__fill_2
XFILLER_5_141 vdd vss gf180mcu_fd_sc_mcu7t5v0__fill_1
Xgen_series_gy_g1\[5\].u_series_gyn2 cap_series_gyn cap_series_gyn tune_series_gy[4]
+ gen_series_gy_g1\[5\].u_series_gyn2/ZN vdd vss gf180mcu_fd_sc_mcu7t5v0__aoi21_4
XFILLER_64_321 vdd vss gf180mcu_fd_sc_mcu7t5v0__fillcap_8
Xgen_shunt_g1\[87\].u_shunt_n cap_shunt_n cap_shunt_n tune_shunt[7] gen_shunt_g1\[87\].u_shunt_n/ZN
+ vdd vss gf180mcu_fd_sc_mcu7t5v0__aoi21_4
XFILLER_55_321 vdd vss gf180mcu_fd_sc_mcu7t5v0__fillcap_8
Xgen_shunt_g3\[15\].u_shunt_n cap_shunt_n cap_shunt_n tune_shunt[5] gen_shunt_g3\[15\].u_shunt_n/ZN
+ vdd vss gf180mcu_fd_sc_mcu7t5v0__aoi21_4
XFILLER_23_240 vdd vss gf180mcu_fd_sc_mcu7t5v0__fillcap_16
XFILLER_23_98 vdd vss gf180mcu_fd_sc_mcu7t5v0__fillcap_8
XFILLER_3_2 vdd vss gf180mcu_fd_sc_mcu7t5v0__fill_1
Xgen_shunt_g2\[28\].u_shunt_p cap_shunt_p cap_shunt_p tune_shunt[6] gen_shunt_g2\[28\].u_shunt_p/ZN
+ vdd vss gf180mcu_fd_sc_mcu7t5v0__aoi21_4
XFILLER_46_321 vdd vss gf180mcu_fd_sc_mcu7t5v0__fill_1
XFILLER_36_2 vdd vss gf180mcu_fd_sc_mcu7t5v0__fillcap_8
Xgen_shunt_gy_g1\[3\].u_shunt_gyn1 cap_shunt_gyn cap_shunt_gyn tune_shunt_gy[6] gen_shunt_gy_g1\[3\].u_shunt_gyn1/ZN
+ vdd vss gf180mcu_fd_sc_mcu7t5v0__aoi21_1
Xgen_shunt_g1\[36\].u_shunt_n cap_shunt_n cap_shunt_n tune_shunt[7] gen_shunt_g1\[36\].u_shunt_n/ZN
+ vdd vss gf180mcu_fd_sc_mcu7t5v0__aoi21_4
XFILLER_55_195 vdd vss gf180mcu_fd_sc_mcu7t5v0__fillcap_16
XFILLER_55_140 vdd vss gf180mcu_fd_sc_mcu7t5v0__fill_2
XFILLER_43_302 vdd vss gf180mcu_fd_sc_mcu7t5v0__fillcap_4
XFILLER_28_321 vdd vss gf180mcu_fd_sc_mcu7t5v0__fillcap_8
XFILLER_34_53 vdd vss gf180mcu_fd_sc_mcu7t5v0__fill_2
Xgen_shunt_g1\[70\].u_shunt_p cap_shunt_p cap_shunt_p tune_shunt[7] gen_shunt_g1\[70\].u_shunt_p/ZN
+ vdd vss gf180mcu_fd_sc_mcu7t5v0__aoi21_4
XFILLER_25_302 vdd vss gf180mcu_fd_sc_mcu7t5v0__fillcap_4
XFILLER_37_195 vdd vss gf180mcu_fd_sc_mcu7t5v0__fillcap_16
Xgen_shunt_gygy_g1\[5\].u_shunt_gyp1 cap_series_gygyp cap_series_gygyp tune_series_gygy[5]
+ gen_shunt_gygy_g1\[5\].u_shunt_gyp1/ZN vdd vss gf180mcu_fd_sc_mcu7t5v0__aoi21_4
XFILLER_20_66 vdd vss gf180mcu_fd_sc_mcu7t5v0__fillcap_4
Xgen_shunt_g1\[89\].u_shunt_p cap_shunt_p cap_shunt_p tune_shunt[7] gen_shunt_g1\[89\].u_shunt_p/ZN
+ vdd vss gf180mcu_fd_sc_mcu7t5v0__aoi21_4
XFILLER_31_327 vdd vss gf180mcu_fd_sc_mcu7t5v0__fillcap_4
XFILLER_61_73 vdd vss gf180mcu_fd_sc_mcu7t5v0__fill_1
XFILLER_61_40 vdd vss gf180mcu_fd_sc_mcu7t5v0__fill_2
Xgen_series_gy_g2\[1\].u_series_gyp1 cap_series_gyp cap_series_gyp tune_series_gy[3]
+ gen_series_gy_g2\[1\].u_series_gyp1/ZN vdd vss gf180mcu_fd_sc_mcu7t5v0__aoi21_4
Xgen_shunt_g3\[17\].u_shunt_p cap_shunt_p cap_shunt_p tune_shunt[5] gen_shunt_g3\[17\].u_shunt_p/ZN
+ vdd vss gf180mcu_fd_sc_mcu7t5v0__aoi21_4
XTAP_349 vdd vss gf180mcu_fd_sc_mcu7t5v0__filltie
XTAP_338 vdd vss gf180mcu_fd_sc_mcu7t5v0__filltie
XFILLER_6_79 vdd vss gf180mcu_fd_sc_mcu7t5v0__fill_2
XTAP_305 vdd vss gf180mcu_fd_sc_mcu7t5v0__filltie
XTAP_316 vdd vss gf180mcu_fd_sc_mcu7t5v0__filltie
XTAP_327 vdd vss gf180mcu_fd_sc_mcu7t5v0__filltie
XFILLER_19_140 vdd vss gf180mcu_fd_sc_mcu7t5v0__fill_2
XFILLER_19_195 vdd vss gf180mcu_fd_sc_mcu7t5v0__fillcap_16
Xgen_shunt_g4\[1\].u_shunt_p cap_shunt_p cap_shunt_p tune_shunt[4] gen_shunt_g4\[1\].u_shunt_p/ZN
+ vdd vss gf180mcu_fd_sc_mcu7t5v0__aoi21_4
Xgen_shunt_g2\[25\].u_shunt_n cap_shunt_n cap_shunt_n tune_shunt[6] gen_shunt_g2\[25\].u_shunt_n/ZN
+ vdd vss gf180mcu_fd_sc_mcu7t5v0__aoi21_4
XFILLER_57_279 vdd vss gf180mcu_fd_sc_mcu7t5v0__fillcap_4
XFILLER_15_44 vdd vss gf180mcu_fd_sc_mcu7t5v0__fill_2
XFILLER_40_179 vdd vss gf180mcu_fd_sc_mcu7t5v0__fill_1
Xgen_shunt_g1\[38\].u_shunt_p cap_shunt_p cap_shunt_p tune_shunt[7] gen_shunt_g1\[38\].u_shunt_p/ZN
+ vdd vss gf180mcu_fd_sc_mcu7t5v0__aoi21_4
XFILLER_48_246 vdd vss gf180mcu_fd_sc_mcu7t5v0__fill_2
XTAP_179 vdd vss gf180mcu_fd_sc_mcu7t5v0__filltie
XTAP_168 vdd vss gf180mcu_fd_sc_mcu7t5v0__filltie
XTAP_157 vdd vss gf180mcu_fd_sc_mcu7t5v0__filltie
XTAP_146 vdd vss gf180mcu_fd_sc_mcu7t5v0__filltie
XFILLER_22_102 vdd vss gf180mcu_fd_sc_mcu7t5v0__fillcap_4
Xgen_series_gy_g1\[0\].u_series_gyn1 cap_series_gyn cap_series_gyn tune_series_gy[5]
+ gen_series_gy_g1\[0\].u_series_gyn1/ZN vdd vss gf180mcu_fd_sc_mcu7t5v0__aoi21_4
XFILLER_22_179 vdd vss gf180mcu_fd_sc_mcu7t5v0__fill_1
Xgen_series_gy_g2\[6\].u_series_gyn1 cap_series_gyn cap_series_gyn tune_series_gy[3]
+ gen_series_gy_g2\[6\].u_series_gyn1/ZN vdd vss gf180mcu_fd_sc_mcu7t5v0__aoi21_4
XFILLER_42_53 vdd vss gf180mcu_fd_sc_mcu7t5v0__fill_2
XFILLER_13_124 vdd vss gf180mcu_fd_sc_mcu7t5v0__fillcap_16
XFILLER_67_72 vdd vss gf180mcu_fd_sc_mcu7t5v0__fillcap_32
XFILLER_8_150 vdd vss gf180mcu_fd_sc_mcu7t5v0__fill_2
XFILLER_66_2 vdd vss gf180mcu_fd_sc_mcu7t5v0__fillcap_32
Xgen_shunt_g1\[86\].u_shunt_n cap_shunt_n cap_shunt_n tune_shunt[7] gen_shunt_g1\[86\].u_shunt_n/ZN
+ vdd vss gf180mcu_fd_sc_mcu7t5v0__aoi21_4
Xgen_shunt_g3\[14\].u_shunt_n cap_shunt_n cap_shunt_n tune_shunt[5] gen_shunt_g3\[14\].u_shunt_n/ZN
+ vdd vss gf180mcu_fd_sc_mcu7t5v0__aoi21_4
XFILLER_50_230 vdd vss gf180mcu_fd_sc_mcu7t5v0__fillcap_16
XFILLER_10_105 vdd vss gf180mcu_fd_sc_mcu7t5v0__fill_1
XFILLER_35_282 vdd vss gf180mcu_fd_sc_mcu7t5v0__fill_2
XFILLER_12_34 vdd vss gf180mcu_fd_sc_mcu7t5v0__fill_1
XFILLER_58_330 vdd vss gf180mcu_fd_sc_mcu7t5v0__fill_1
Xgen_shunt_g2\[27\].u_shunt_p cap_shunt_p cap_shunt_p tune_shunt[6] gen_shunt_g2\[27\].u_shunt_p/ZN
+ vdd vss gf180mcu_fd_sc_mcu7t5v0__aoi21_4
XFILLER_26_293 vdd vss gf180mcu_fd_sc_mcu7t5v0__fill_1
XFILLER_5_186 vdd vss gf180mcu_fd_sc_mcu7t5v0__fill_2
XFILLER_49_330 vdd vss gf180mcu_fd_sc_mcu7t5v0__fill_1
XFILLER_17_282 vdd vss gf180mcu_fd_sc_mcu7t5v0__fill_2
XFILLER_32_230 vdd vss gf180mcu_fd_sc_mcu7t5v0__fillcap_16
Xgen_shunt_g1\[35\].u_shunt_n cap_shunt_n cap_shunt_n tune_shunt[7] gen_shunt_g1\[35\].u_shunt_n/ZN
+ vdd vss gf180mcu_fd_sc_mcu7t5v0__aoi21_4
XFILLER_55_311 vdd vss gf180mcu_fd_sc_mcu7t5v0__fill_2
XFILLER_23_44 vdd vss gf180mcu_fd_sc_mcu7t5v0__fill_2
XFILLER_0_37 vdd vss gf180mcu_fd_sc_mcu7t5v0__fill_1
XFILLER_14_230 vdd vss gf180mcu_fd_sc_mcu7t5v0__fillcap_16
XFILLER_29_2 vdd vss gf180mcu_fd_sc_mcu7t5v0__fillcap_16
XFILLER_56_108 vdd vss gf180mcu_fd_sc_mcu7t5v0__fill_1
Xgen_shunt_gy_g1\[3\].u_shunt_gyn2 cap_shunt_gyn cap_shunt_gyn tune_shunt_gy[5] gen_shunt_gy_g1\[3\].u_shunt_gyn2/ZN
+ vdd vss gf180mcu_fd_sc_mcu7t5v0__aoi21_1
XFILLER_37_311 vdd vss gf180mcu_fd_sc_mcu7t5v0__fillcap_16
XFILLER_20_266 vdd vss gf180mcu_fd_sc_mcu7t5v0__fill_2
Xgen_shunt_g1\[88\].u_shunt_p cap_shunt_p cap_shunt_p tune_shunt[7] gen_shunt_g1\[88\].u_shunt_p/ZN
+ vdd vss gf180mcu_fd_sc_mcu7t5v0__aoi21_4
XFILLER_18_66 vdd vss gf180mcu_fd_sc_mcu7t5v0__fillcap_4
XFILLER_50_53 vdd vss gf180mcu_fd_sc_mcu7t5v0__fill_2
XFILLER_7_215 vdd vss gf180mcu_fd_sc_mcu7t5v0__fill_1
XFILLER_11_266 vdd vss gf180mcu_fd_sc_mcu7t5v0__fillcap_16
Xgen_shunt_g3\[16\].u_shunt_p cap_shunt_p cap_shunt_p tune_shunt[5] gen_shunt_g3\[16\].u_shunt_p/ZN
+ vdd vss gf180mcu_fd_sc_mcu7t5v0__aoi21_4
XFILLER_59_73 vdd vss gf180mcu_fd_sc_mcu7t5v0__fill_1
XFILLER_59_40 vdd vss gf180mcu_fd_sc_mcu7t5v0__fill_2
XFILLER_38_108 vdd vss gf180mcu_fd_sc_mcu7t5v0__fill_1
XFILLER_61_144 vdd vss gf180mcu_fd_sc_mcu7t5v0__fillcap_64
Xgen_shunt_g4\[0\].u_shunt_p cap_shunt_p cap_shunt_p tune_shunt[4] gen_shunt_g4\[0\].u_shunt_p/ZN
+ vdd vss gf180mcu_fd_sc_mcu7t5v0__aoi21_4
XFILLER_6_292 vdd vss gf180mcu_fd_sc_mcu7t5v0__fill_2
Xgen_shunt_g2\[24\].u_shunt_n cap_shunt_n cap_shunt_n tune_shunt[6] gen_shunt_g2\[24\].u_shunt_n/ZN
+ vdd vss gf180mcu_fd_sc_mcu7t5v0__aoi21_4
XFILLER_52_133 vdd vss gf180mcu_fd_sc_mcu7t5v0__fill_2
XFILLER_37_130 vdd vss gf180mcu_fd_sc_mcu7t5v0__fillcap_8
XFILLER_40_317 vdd vss gf180mcu_fd_sc_mcu7t5v0__fill_2
XFILLER_20_34 vdd vss gf180mcu_fd_sc_mcu7t5v0__fill_1
Xgen_shunt_g1\[37\].u_shunt_p cap_shunt_p cap_shunt_p tune_shunt[7] gen_shunt_g1\[37\].u_shunt_p/ZN
+ vdd vss gf180mcu_fd_sc_mcu7t5v0__aoi21_4
XFILLER_43_144 vdd vss gf180mcu_fd_sc_mcu7t5v0__fill_1
XTAP_339 vdd vss gf180mcu_fd_sc_mcu7t5v0__filltie
XFILLER_3_240 vdd vss gf180mcu_fd_sc_mcu7t5v0__fill_2
XTAP_306 vdd vss gf180mcu_fd_sc_mcu7t5v0__filltie
XTAP_317 vdd vss gf180mcu_fd_sc_mcu7t5v0__filltie
XTAP_328 vdd vss gf180mcu_fd_sc_mcu7t5v0__filltie
XFILLER_66_247 vdd vss gf180mcu_fd_sc_mcu7t5v0__fill_1
XFILLER_34_133 vdd vss gf180mcu_fd_sc_mcu7t5v0__fill_2
XFILLER_25_144 vdd vss gf180mcu_fd_sc_mcu7t5v0__fill_1
XFILLER_31_44 vdd vss gf180mcu_fd_sc_mcu7t5v0__fill_2
XFILLER_31_77 vdd vss gf180mcu_fd_sc_mcu7t5v0__fill_2
Xgen_shunt_g3\[9\].u_shunt_n cap_shunt_n cap_shunt_n tune_shunt[5] gen_shunt_g3\[9\].u_shunt_n/ZN
+ vdd vss gf180mcu_fd_sc_mcu7t5v0__aoi21_4
XFILLER_56_41 vdd vss gf180mcu_fd_sc_mcu7t5v0__fill_2
XFILLER_16_133 vdd vss gf180mcu_fd_sc_mcu7t5v0__fill_2
XFILLER_8_321 vdd vss gf180mcu_fd_sc_mcu7t5v0__fillcap_8
XFILLER_31_169 vdd vss gf180mcu_fd_sc_mcu7t5v0__fill_2
Xgen_shunt_g1\[85\].u_shunt_n cap_shunt_n cap_shunt_n tune_shunt[7] gen_shunt_g1\[85\].u_shunt_n/ZN
+ vdd vss gf180mcu_fd_sc_mcu7t5v0__aoi21_4
XTAP_169 vdd vss gf180mcu_fd_sc_mcu7t5v0__filltie
XTAP_158 vdd vss gf180mcu_fd_sc_mcu7t5v0__filltie
XTAP_136 vdd vss gf180mcu_fd_sc_mcu7t5v0__filltie
XTAP_147 vdd vss gf180mcu_fd_sc_mcu7t5v0__filltie
XFILLER_11_2 vdd vss gf180mcu_fd_sc_mcu7t5v0__fillcap_8
XFILLER_62_250 vdd vss gf180mcu_fd_sc_mcu7t5v0__fillcap_64
Xgen_shunt_g3\[13\].u_shunt_n cap_shunt_n cap_shunt_n tune_shunt[5] gen_shunt_g3\[13\].u_shunt_n/ZN
+ vdd vss gf180mcu_fd_sc_mcu7t5v0__aoi21_4
Xgen_series_gy_g1\[0\].u_series_gyn2 cap_series_gyn cap_series_gyn tune_series_gy[4]
+ gen_series_gy_g1\[0\].u_series_gyn2/ZN vdd vss gf180mcu_fd_sc_mcu7t5v0__aoi21_4
Xgen_shunt_g2\[26\].u_shunt_p cap_shunt_p cap_shunt_p tune_shunt[6] gen_shunt_g2\[26\].u_shunt_p/ZN
+ vdd vss gf180mcu_fd_sc_mcu7t5v0__aoi21_4
XFILLER_53_283 vdd vss gf180mcu_fd_sc_mcu7t5v0__fill_1
XFILLER_5_302 vdd vss gf180mcu_fd_sc_mcu7t5v0__fillcap_4
XFILLER_44_250 vdd vss gf180mcu_fd_sc_mcu7t5v0__fill_1
Xgen_shunt_g1\[34\].u_shunt_n cap_shunt_n cap_shunt_n tune_shunt[7] gen_shunt_g1\[34\].u_shunt_n/ZN
+ vdd vss gf180mcu_fd_sc_mcu7t5v0__aoi21_4
XFILLER_59_2 vdd vss gf180mcu_fd_sc_mcu7t5v0__fillcap_8
XFILLER_26_250 vdd vss gf180mcu_fd_sc_mcu7t5v0__fill_1
XFILLER_41_286 vdd vss gf180mcu_fd_sc_mcu7t5v0__fill_1
XFILLER_49_320 vdd vss gf180mcu_fd_sc_mcu7t5v0__fill_2
XFILLER_32_275 vdd vss gf180mcu_fd_sc_mcu7t5v0__fill_2
XFILLER_55_301 vdd vss gf180mcu_fd_sc_mcu7t5v0__fill_2
Xgen_shunt_g1\[87\].u_shunt_p cap_shunt_p cap_shunt_p tune_shunt[7] gen_shunt_g1\[87\].u_shunt_p/ZN
+ vdd vss gf180mcu_fd_sc_mcu7t5v0__aoi21_4
XFILLER_23_286 vdd vss gf180mcu_fd_sc_mcu7t5v0__fillcap_16
Xgen_shunt_g3\[15\].u_shunt_p cap_shunt_p cap_shunt_p tune_shunt[5] gen_shunt_g3\[15\].u_shunt_p/ZN
+ vdd vss gf180mcu_fd_sc_mcu7t5v0__aoi21_4
XFILLER_2_124 vdd vss gf180mcu_fd_sc_mcu7t5v0__fill_2
XFILLER_2_179 vdd vss gf180mcu_fd_sc_mcu7t5v0__fill_1
XFILLER_48_53 vdd vss gf180mcu_fd_sc_mcu7t5v0__fill_2
XFILLER_0_27 vdd vss gf180mcu_fd_sc_mcu7t5v0__fillcap_8
XFILLER_61_326 vdd vss gf180mcu_fd_sc_mcu7t5v0__fillcap_4
XFILLER_9_36 vdd vss gf180mcu_fd_sc_mcu7t5v0__fill_2
XFILLER_14_275 vdd vss gf180mcu_fd_sc_mcu7t5v0__fill_2
Xgen_shunt_g2\[23\].u_shunt_n cap_shunt_n cap_shunt_n tune_shunt[6] gen_shunt_g2\[23\].u_shunt_n/ZN
+ vdd vss gf180mcu_fd_sc_mcu7t5v0__aoi21_4
Xgen_series_gy_g3\[2\].u_series_gyp1 cap_series_gyp cap_series_gyp tune_series_gy[2]
+ gen_series_gy_g3\[2\].u_series_gyp1/ZN vdd vss gf180mcu_fd_sc_mcu7t5v0__aoi21_4
Xgen_shunt_g1\[36\].u_shunt_p cap_shunt_p cap_shunt_p tune_shunt[7] gen_shunt_g1\[36\].u_shunt_p/ZN
+ vdd vss gf180mcu_fd_sc_mcu7t5v0__aoi21_4
XFILLER_18_34 vdd vss gf180mcu_fd_sc_mcu7t5v0__fill_1
XFILLER_28_301 vdd vss gf180mcu_fd_sc_mcu7t5v0__fillcap_16
XFILLER_11_212 vdd vss gf180mcu_fd_sc_mcu7t5v0__fill_1
XFILLER_46_175 vdd vss gf180mcu_fd_sc_mcu7t5v0__fill_2
XFILLER_41_2 vdd vss gf180mcu_fd_sc_mcu7t5v0__fillcap_16
XFILLER_1_70 vdd vss gf180mcu_fd_sc_mcu7t5v0__fill_1
XFILLER_40_329 vdd vss gf180mcu_fd_sc_mcu7t5v0__fill_2
Xgen_shunt_gygy_g1\[5\].u_shunt_gyn1 cap_series_gygyn cap_series_gygyn tune_series_gygy[5]
+ gen_shunt_gygy_g1\[5\].u_shunt_gyn1/ZN vdd vss gf180mcu_fd_sc_mcu7t5v0__aoi21_4
XFILLER_29_44 vdd vss gf180mcu_fd_sc_mcu7t5v0__fill_2
Xgen_shunt_g3\[8\].u_shunt_n cap_shunt_n cap_shunt_n tune_shunt[5] gen_shunt_g3\[8\].u_shunt_n/ZN
+ vdd vss gf180mcu_fd_sc_mcu7t5v0__aoi21_4
XFILLER_28_175 vdd vss gf180mcu_fd_sc_mcu7t5v0__fill_2
XFILLER_29_77 vdd vss gf180mcu_fd_sc_mcu7t5v0__fill_2
XFILLER_6_37 vdd vss gf180mcu_fd_sc_mcu7t5v0__fillcap_16
Xgen_series_gy_g2\[1\].u_series_gyn1 cap_series_gyn cap_series_gyn tune_series_gy[3]
+ gen_series_gy_g2\[1\].u_series_gyn1/ZN vdd vss gf180mcu_fd_sc_mcu7t5v0__aoi21_4
Xgen_shunt_g1\[84\].u_shunt_n cap_shunt_n cap_shunt_n tune_shunt[7] gen_shunt_g1\[84\].u_shunt_n/ZN
+ vdd vss gf180mcu_fd_sc_mcu7t5v0__aoi21_4
XTAP_329 vdd vss gf180mcu_fd_sc_mcu7t5v0__filltie
XTAP_307 vdd vss gf180mcu_fd_sc_mcu7t5v0__filltie
XTAP_318 vdd vss gf180mcu_fd_sc_mcu7t5v0__filltie
Xgen_shunt_g3\[12\].u_shunt_n cap_shunt_n cap_shunt_n tune_shunt[5] gen_shunt_g3\[12\].u_shunt_n/ZN
+ vdd vss gf180mcu_fd_sc_mcu7t5v0__aoi21_4
XFILLER_22_318 vdd vss gf180mcu_fd_sc_mcu7t5v0__fill_1
XFILLER_22_329 vdd vss gf180mcu_fd_sc_mcu7t5v0__fill_2
XFILLER_57_215 vdd vss gf180mcu_fd_sc_mcu7t5v0__fillcap_64
Xgen_shunt_g2\[25\].u_shunt_p cap_shunt_p cap_shunt_p tune_shunt[6] gen_shunt_g2\[25\].u_shunt_p/ZN
+ vdd vss gf180mcu_fd_sc_mcu7t5v0__aoi21_4
XFILLER_40_159 vdd vss gf180mcu_fd_sc_mcu7t5v0__fillcap_16
XFILLER_48_204 vdd vss gf180mcu_fd_sc_mcu7t5v0__fill_2
Xgen_shunt_gygy_g1\[1\].u_shunt_gyp1 cap_series_gygyp cap_series_gygyp tune_series_gygy[5]
+ gen_shunt_gygy_g1\[1\].u_shunt_gyp1/ZN vdd vss gf180mcu_fd_sc_mcu7t5v0__aoi21_4
XFILLER_31_104 vdd vss gf180mcu_fd_sc_mcu7t5v0__fill_2
Xgen_shunt_g1\[33\].u_shunt_n cap_shunt_n cap_shunt_n tune_shunt[7] gen_shunt_g1\[33\].u_shunt_n/ZN
+ vdd vss gf180mcu_fd_sc_mcu7t5v0__aoi21_4
XTAP_137 vdd vss gf180mcu_fd_sc_mcu7t5v0__filltie
XTAP_148 vdd vss gf180mcu_fd_sc_mcu7t5v0__filltie
XTAP_159 vdd vss gf180mcu_fd_sc_mcu7t5v0__filltie
XFILLER_39_215 vdd vss gf180mcu_fd_sc_mcu7t5v0__fill_1
XFILLER_22_159 vdd vss gf180mcu_fd_sc_mcu7t5v0__fillcap_16
XFILLER_53_273 vdd vss gf180mcu_fd_sc_mcu7t5v0__fill_2
XFILLER_26_34 vdd vss gf180mcu_fd_sc_mcu7t5v0__fill_1
XFILLER_3_27 vdd vss gf180mcu_fd_sc_mcu7t5v0__fillcap_16
Xgen_shunt_g1\[86\].u_shunt_p cap_shunt_p cap_shunt_p tune_shunt[7] gen_shunt_g1\[86\].u_shunt_p/ZN
+ vdd vss gf180mcu_fd_sc_mcu7t5v0__aoi21_4
XFILLER_35_240 vdd vss gf180mcu_fd_sc_mcu7t5v0__fill_2
Xgen_shunt_g3\[14\].u_shunt_p cap_shunt_p cap_shunt_p tune_shunt[5] gen_shunt_g3\[14\].u_shunt_p/ZN
+ vdd vss gf180mcu_fd_sc_mcu7t5v0__aoi21_4
XFILLER_50_298 vdd vss gf180mcu_fd_sc_mcu7t5v0__fill_2
XFILLER_12_69 vdd vss gf180mcu_fd_sc_mcu7t5v0__fill_2
XFILLER_58_321 vdd vss gf180mcu_fd_sc_mcu7t5v0__fill_1
XFILLER_37_44 vdd vss gf180mcu_fd_sc_mcu7t5v0__fill_2
XFILLER_37_77 vdd vss gf180mcu_fd_sc_mcu7t5v0__fill_2
XFILLER_5_144 vdd vss gf180mcu_fd_sc_mcu7t5v0__fillcap_16
Xgen_shunt_g2\[22\].u_shunt_n cap_shunt_n cap_shunt_n tune_shunt[6] gen_shunt_g2\[22\].u_shunt_n/ZN
+ vdd vss gf180mcu_fd_sc_mcu7t5v0__aoi21_4
XFILLER_49_310 vdd vss gf180mcu_fd_sc_mcu7t5v0__fill_2
XFILLER_17_240 vdd vss gf180mcu_fd_sc_mcu7t5v0__fill_2
Xgen_shunt_g1\[35\].u_shunt_p cap_shunt_p cap_shunt_p tune_shunt[7] gen_shunt_g1\[35\].u_shunt_p/ZN
+ vdd vss gf180mcu_fd_sc_mcu7t5v0__aoi21_4
XFILLER_49_140 vdd vss gf180mcu_fd_sc_mcu7t5v0__fill_2
XFILLER_64_176 vdd vss gf180mcu_fd_sc_mcu7t5v0__fill_1
XFILLER_49_195 vdd vss gf180mcu_fd_sc_mcu7t5v0__fillcap_16
XFILLER_20_246 vdd vss gf180mcu_fd_sc_mcu7t5v0__fill_2
Xgen_shunt_g3\[7\].u_shunt_n cap_shunt_n cap_shunt_n tune_shunt[5] gen_shunt_g3\[7\].u_shunt_n/ZN
+ vdd vss gf180mcu_fd_sc_mcu7t5v0__aoi21_4
XFILLER_34_34 vdd vss gf180mcu_fd_sc_mcu7t5v0__fill_1
Xgen_shunt_g1\[83\].u_shunt_n cap_shunt_n cap_shunt_n tune_shunt[7] gen_shunt_g1\[83\].u_shunt_n/ZN
+ vdd vss gf180mcu_fd_sc_mcu7t5v0__aoi21_4
XFILLER_1_2 vdd vss gf180mcu_fd_sc_mcu7t5v0__fill_1
XFILLER_19_302 vdd vss gf180mcu_fd_sc_mcu7t5v0__fillcap_4
Xgen_shunt_g3\[11\].u_shunt_n cap_shunt_n cap_shunt_n tune_shunt[5] gen_shunt_g3\[11\].u_shunt_n/ZN
+ vdd vss gf180mcu_fd_sc_mcu7t5v0__aoi21_4
XFILLER_6_250 vdd vss gf180mcu_fd_sc_mcu7t5v0__fillcap_16
XFILLER_34_2 vdd vss gf180mcu_fd_sc_mcu7t5v0__fillcap_8
Xgen_shunt_g2\[24\].u_shunt_p cap_shunt_p cap_shunt_p tune_shunt[6] gen_shunt_g2\[24\].u_shunt_p/ZN
+ vdd vss gf180mcu_fd_sc_mcu7t5v0__aoi21_4
XFILLER_52_179 vdd vss gf180mcu_fd_sc_mcu7t5v0__fill_1
XFILLER_45_77 vdd vss gf180mcu_fd_sc_mcu7t5v0__fill_2
XFILLER_45_44 vdd vss gf180mcu_fd_sc_mcu7t5v0__fill_2
XFILLER_61_98 vdd vss gf180mcu_fd_sc_mcu7t5v0__fillcap_32
XFILLER_61_10 vdd vss gf180mcu_fd_sc_mcu7t5v0__fillcap_4
Xgen_shunt_g1\[32\].u_shunt_n cap_shunt_n cap_shunt_n tune_shunt[7] gen_shunt_g1\[32\].u_shunt_n/ZN
+ vdd vss gf180mcu_fd_sc_mcu7t5v0__aoi21_4
XFILLER_6_27 vdd vss gf180mcu_fd_sc_mcu7t5v0__fillcap_8
XFILLER_3_286 vdd vss gf180mcu_fd_sc_mcu7t5v0__fillcap_16
XTAP_308 vdd vss gf180mcu_fd_sc_mcu7t5v0__filltie
XTAP_319 vdd vss gf180mcu_fd_sc_mcu7t5v0__filltie
XFILLER_34_179 vdd vss gf180mcu_fd_sc_mcu7t5v0__fill_1
Xgen_series_gy_g1\[13\].u_series_gyp1 cap_series_gyp cap_series_gyp tune_series_gy[5]
+ gen_series_gy_g1\[13\].u_series_gyp1/ZN vdd vss gf180mcu_fd_sc_mcu7t5v0__aoi21_4
XFILLER_21_330 vdd vss gf180mcu_fd_sc_mcu7t5v0__fill_1
XFILLER_40_105 vdd vss gf180mcu_fd_sc_mcu7t5v0__fill_1
XFILLER_0_212 vdd vss gf180mcu_fd_sc_mcu7t5v0__fill_1
XFILLER_31_79 vdd vss gf180mcu_fd_sc_mcu7t5v0__fill_1
XFILLER_63_208 vdd vss gf180mcu_fd_sc_mcu7t5v0__fillcap_4
Xgen_shunt_g3\[9\].u_shunt_p cap_shunt_p cap_shunt_p tune_shunt[5] gen_shunt_g3\[9\].u_shunt_p/ZN
+ vdd vss gf180mcu_fd_sc_mcu7t5v0__aoi21_4
XPHY_130 vdd vss gf180mcu_fd_sc_mcu7t5v0__endcap
XFILLER_16_179 vdd vss gf180mcu_fd_sc_mcu7t5v0__fill_1
XFILLER_31_138 vdd vss gf180mcu_fd_sc_mcu7t5v0__fillcap_4
Xgen_shunt_gygy_g3\[0\].u_shunt_gyp1 cap_series_gygyp cap_series_gygyp tune_series_gygy[3]
+ gen_shunt_gygy_g3\[0\].u_shunt_gyp1/ZN vdd vss gf180mcu_fd_sc_mcu7t5v0__aoi21_4
XTAP_138 vdd vss gf180mcu_fd_sc_mcu7t5v0__filltie
XTAP_149 vdd vss gf180mcu_fd_sc_mcu7t5v0__filltie
Xgen_shunt_g1\[85\].u_shunt_p cap_shunt_p cap_shunt_p tune_shunt[7] gen_shunt_g1\[85\].u_shunt_p/ZN
+ vdd vss gf180mcu_fd_sc_mcu7t5v0__aoi21_4
XFILLER_47_282 vdd vss gf180mcu_fd_sc_mcu7t5v0__fill_2
Xgen_shunt_g3\[13\].u_shunt_p cap_shunt_p cap_shunt_p tune_shunt[5] gen_shunt_g3\[13\].u_shunt_p/ZN
+ vdd vss gf180mcu_fd_sc_mcu7t5v0__aoi21_4
XFILLER_7_70 vdd vss gf180mcu_fd_sc_mcu7t5v0__fill_1
XFILLER_53_296 vdd vss gf180mcu_fd_sc_mcu7t5v0__fill_2
XFILLER_53_263 vdd vss gf180mcu_fd_sc_mcu7t5v0__fill_2
XFILLER_26_79 vdd vss gf180mcu_fd_sc_mcu7t5v0__fill_2
XFILLER_42_34 vdd vss gf180mcu_fd_sc_mcu7t5v0__fill_1
Xgen_shunt_g2\[21\].u_shunt_n cap_shunt_n cap_shunt_n tune_shunt[6] gen_shunt_g2\[21\].u_shunt_n/ZN
+ vdd vss gf180mcu_fd_sc_mcu7t5v0__aoi21_4
XFILLER_44_230 vdd vss gf180mcu_fd_sc_mcu7t5v0__fillcap_16
XFILLER_29_282 vdd vss gf180mcu_fd_sc_mcu7t5v0__fill_2
Xgen_series_gy_g1\[6\].u_series_gyp1 cap_series_gyp cap_series_gyp tune_series_gy[5]
+ gen_series_gy_g1\[6\].u_series_gyp1/ZN vdd vss gf180mcu_fd_sc_mcu7t5v0__aoi21_4
Xgen_shunt_g1\[34\].u_shunt_p cap_shunt_p cap_shunt_p tune_shunt[7] gen_shunt_g1\[34\].u_shunt_p/ZN
+ vdd vss gf180mcu_fd_sc_mcu7t5v0__aoi21_4
XFILLER_10_108 vdd vss gf180mcu_fd_sc_mcu7t5v0__fillcap_16
XFILLER_12_37 vdd vss gf180mcu_fd_sc_mcu7t5v0__fillcap_8
XFILLER_2_329 vdd vss gf180mcu_fd_sc_mcu7t5v0__fill_2
XFILLER_2_318 vdd vss gf180mcu_fd_sc_mcu7t5v0__fill_1
XFILLER_26_230 vdd vss gf180mcu_fd_sc_mcu7t5v0__fillcap_16
XFILLER_53_44 vdd vss gf180mcu_fd_sc_mcu7t5v0__fill_2
XFILLER_41_211 vdd vss gf180mcu_fd_sc_mcu7t5v0__fill_2
XFILLER_41_266 vdd vss gf180mcu_fd_sc_mcu7t5v0__fillcap_16
XFILLER_64_314 vdd vss gf180mcu_fd_sc_mcu7t5v0__fillcap_4
XFILLER_64_2 vdd vss gf180mcu_fd_sc_mcu7t5v0__fillcap_32
XFILLER_67_174 vdd vss gf180mcu_fd_sc_mcu7t5v0__fill_1
Xgen_shunt_g3\[6\].u_shunt_n cap_shunt_n cap_shunt_n tune_shunt[5] gen_shunt_g3\[6\].u_shunt_n/ZN
+ vdd vss gf180mcu_fd_sc_mcu7t5v0__aoi21_4
XFILLER_23_211 vdd vss gf180mcu_fd_sc_mcu7t5v0__fill_2
Xgen_shunt_g1\[82\].u_shunt_n cap_shunt_n cap_shunt_n tune_shunt[7] gen_shunt_g1\[82\].u_shunt_n/ZN
+ vdd vss gf180mcu_fd_sc_mcu7t5v0__aoi21_4
Xgen_shunt_g3\[10\].u_shunt_n cap_shunt_n cap_shunt_n tune_shunt[5] gen_shunt_g3\[10\].u_shunt_n/ZN
+ vdd vss gf180mcu_fd_sc_mcu7t5v0__aoi21_4