* NGSPICE file created from dlc.ext - technology: gf180mcuC

* Black-box entry subcircuit for gf180mcu_fd_sc_mcu7t5v0__filltie abstract view
.subckt gf180mcu_fd_sc_mcu7t5v0__filltie VDD VSS
.ends

* Black-box entry subcircuit for gf180mcu_fd_sc_mcu7t5v0__fill_1 abstract view
.subckt gf180mcu_fd_sc_mcu7t5v0__fill_1 VDD VSS
.ends

* Black-box entry subcircuit for gf180mcu_fd_sc_mcu7t5v0__fillcap_64 abstract view
.subckt gf180mcu_fd_sc_mcu7t5v0__fillcap_64 VDD VSS
.ends

* Black-box entry subcircuit for gf180mcu_fd_sc_mcu7t5v0__fillcap_4 abstract view
.subckt gf180mcu_fd_sc_mcu7t5v0__fillcap_4 VDD VSS
.ends

* Black-box entry subcircuit for gf180mcu_fd_sc_mcu7t5v0__fill_2 abstract view
.subckt gf180mcu_fd_sc_mcu7t5v0__fill_2 VDD VSS
.ends

* Black-box entry subcircuit for gf180mcu_fd_sc_mcu7t5v0__antenna abstract view
.subckt gf180mcu_fd_sc_mcu7t5v0__antenna I VDD VSS
.ends

* Black-box entry subcircuit for gf180mcu_fd_sc_mcu7t5v0__fillcap_32 abstract view
.subckt gf180mcu_fd_sc_mcu7t5v0__fillcap_32 VDD VSS
.ends

* Black-box entry subcircuit for gf180mcu_fd_sc_mcu7t5v0__inv_1 abstract view
.subckt gf180mcu_fd_sc_mcu7t5v0__inv_1 I ZN VDD VSS
.ends

* Black-box entry subcircuit for gf180mcu_fd_sc_mcu7t5v0__fillcap_8 abstract view
.subckt gf180mcu_fd_sc_mcu7t5v0__fillcap_8 VDD VSS
.ends

* Black-box entry subcircuit for gf180mcu_fd_sc_mcu7t5v0__endcap abstract view
.subckt gf180mcu_fd_sc_mcu7t5v0__endcap VDD VSS
.ends

* Black-box entry subcircuit for gf180mcu_fd_sc_mcu7t5v0__fillcap_16 abstract view
.subckt gf180mcu_fd_sc_mcu7t5v0__fillcap_16 VDD VSS
.ends

* Black-box entry subcircuit for gf180mcu_fd_sc_mcu7t5v0__tiel abstract view
.subckt gf180mcu_fd_sc_mcu7t5v0__tiel ZN VDD VSS
.ends

.subckt dlc clk clko latch on op rst sdi sig vdd vss
XTAP_199 vdd vss gf180mcu_fd_sc_mcu7t5v0__filltie
XTAP_188 vdd vss gf180mcu_fd_sc_mcu7t5v0__filltie
XTAP_177 vdd vss gf180mcu_fd_sc_mcu7t5v0__filltie
XFILLER_36_247 vdd vss gf180mcu_fd_sc_mcu7t5v0__fill_1
XFILLER_13_144 vdd vss gf180mcu_fd_sc_mcu7t5v0__fillcap_64
XFILLER_9_137 vdd vss gf180mcu_fd_sc_mcu7t5v0__fillcap_4
XFILLER_41_283 vdd vss gf180mcu_fd_sc_mcu7t5v0__fill_1
XFILLER_37_73 vdd vss gf180mcu_fd_sc_mcu7t5v0__fillcap_64
XFILLER_18_247 vdd vss gf180mcu_fd_sc_mcu7t5v0__fill_1
XFILLER_2_313 vdd vss gf180mcu_fd_sc_mcu7t5v0__fillcap_4
XFILLER_32_250 vdd vss gf180mcu_fd_sc_mcu7t5v0__fillcap_64
XFILLER_5_184 vdd vss gf180mcu_fd_sc_mcu7t5v0__fill_2
XFILLER_23_283 vdd vss gf180mcu_fd_sc_mcu7t5v0__fill_1
XANTENNA_u_trans0p.gen_T\[1\].thrun_I sdi vdd vss gf180mcu_fd_sc_mcu7t5v0__antenna
XFILLER_14_250 vdd vss gf180mcu_fd_sc_mcu7t5v0__fillcap_64
XFILLER_9_66 vdd vss gf180mcu_fd_sc_mcu7t5v0__fillcap_4
XFILLER_2_176 vdd vss gf180mcu_fd_sc_mcu7t5v0__fill_1
XFILLER_11_286 vdd vss gf180mcu_fd_sc_mcu7t5v0__fillcap_32
XFILLER_7_202 vdd vss gf180mcu_fd_sc_mcu7t5v0__fill_1
XFILLER_31_326 vdd vss gf180mcu_fd_sc_mcu7t5v0__fillcap_4
XFILLER_28_172 vdd vss gf180mcu_fd_sc_mcu7t5v0__fillcap_4
XFILLER_6_34 vdd vss gf180mcu_fd_sc_mcu7t5v0__fill_1
XFILLER_3_282 vdd vss gf180mcu_fd_sc_mcu7t5v0__fill_2
XFILLER_40_101 vdd vss gf180mcu_fd_sc_mcu7t5v0__fillcap_4
XFILLER_13_326 vdd vss gf180mcu_fd_sc_mcu7t5v0__fillcap_4
Xu_trans1p.gen_FB\[2\].fbn on on vdd vss gf180mcu_fd_sc_mcu7t5v0__inv_1
XFILLER_0_241 vdd vss gf180mcu_fd_sc_mcu7t5v0__fillcap_4
XFILLER_0_252 vdd vss gf180mcu_fd_sc_mcu7t5v0__fill_2
XFILLER_39_212 vdd vss gf180mcu_fd_sc_mcu7t5v0__fill_1
XFILLER_22_167 vdd vss gf180mcu_fd_sc_mcu7t5v0__fill_2
XFILLER_22_156 vdd vss gf180mcu_fd_sc_mcu7t5v0__fillcap_4
XFILLER_22_101 vdd vss gf180mcu_fd_sc_mcu7t5v0__fillcap_4
XTAP_189 vdd vss gf180mcu_fd_sc_mcu7t5v0__filltie
XTAP_178 vdd vss gf180mcu_fd_sc_mcu7t5v0__filltie
XTAP_167 vdd vss gf180mcu_fd_sc_mcu7t5v0__filltie
XTAP_156 vdd vss gf180mcu_fd_sc_mcu7t5v0__filltie
XTAP_145 vdd vss gf180mcu_fd_sc_mcu7t5v0__filltie
XFILLER_10_329 vdd vss gf180mcu_fd_sc_mcu7t5v0__fill_2
XFILLER_10_318 vdd vss gf180mcu_fd_sc_mcu7t5v0__fill_1
XTAP_134 vdd vss gf180mcu_fd_sc_mcu7t5v0__filltie
XTAP_123 vdd vss gf180mcu_fd_sc_mcu7t5v0__filltie
XTAP_101 vdd vss gf180mcu_fd_sc_mcu7t5v0__filltie
XTAP_112 vdd vss gf180mcu_fd_sc_mcu7t5v0__filltie
XFILLER_27_215 vdd vss gf180mcu_fd_sc_mcu7t5v0__fillcap_64
XFILLER_6_108 vdd vss gf180mcu_fd_sc_mcu7t5v0__fillcap_64
XFILLER_5_141 vdd vss gf180mcu_fd_sc_mcu7t5v0__fill_1
XANTENNA_u_trans0p.gen_T\[5\].thrun_I sdi vdd vss gf180mcu_fd_sc_mcu7t5v0__antenna
XFILLER_0_69 vdd vss gf180mcu_fd_sc_mcu7t5v0__fill_1
Xu_trans1p.gen_X\[4\].crossn op on vdd vss gf180mcu_fd_sc_mcu7t5v0__inv_1
XFILLER_3_2 vdd vss gf180mcu_fd_sc_mcu7t5v0__fillcap_64
XFILLER_36_2 vdd vss gf180mcu_fd_sc_mcu7t5v0__fillcap_32
XFILLER_20_243 vdd vss gf180mcu_fd_sc_mcu7t5v0__fillcap_4
Xu_trans1p.gen_T\[7\].thrun u_trans0p.outp on vdd vss gf180mcu_fd_sc_mcu7t5v0__inv_1
XFILLER_28_321 vdd vss gf180mcu_fd_sc_mcu7t5v0__fillcap_8
Xu_trans1p.gen_FB\[3\].fbp op op vdd vss gf180mcu_fd_sc_mcu7t5v0__inv_1
XANTENNA_u_trans1p.gen_FB\[3\].fbn_I on vdd vss gf180mcu_fd_sc_mcu7t5v0__antenna
XFILLER_3_250 vdd vss gf180mcu_fd_sc_mcu7t5v0__fill_2
XFILLER_34_176 vdd vss gf180mcu_fd_sc_mcu7t5v0__fill_1
XFILLER_15_66 vdd vss gf180mcu_fd_sc_mcu7t5v0__fillcap_4
XFILLER_40_179 vdd vss gf180mcu_fd_sc_mcu7t5v0__fillcap_64
XFILLER_16_176 vdd vss gf180mcu_fd_sc_mcu7t5v0__fill_1
XFILLER_0_264 vdd vss gf180mcu_fd_sc_mcu7t5v0__fill_2
XFILLER_0_297 vdd vss gf180mcu_fd_sc_mcu7t5v0__fill_2
XFILLER_39_279 vdd vss gf180mcu_fd_sc_mcu7t5v0__fillcap_4
XFILLER_22_179 vdd vss gf180mcu_fd_sc_mcu7t5v0__fillcap_64
XTAP_179 vdd vss gf180mcu_fd_sc_mcu7t5v0__filltie
XTAP_168 vdd vss gf180mcu_fd_sc_mcu7t5v0__filltie
XTAP_157 vdd vss gf180mcu_fd_sc_mcu7t5v0__filltie
XTAP_146 vdd vss gf180mcu_fd_sc_mcu7t5v0__filltie
XTAP_135 vdd vss gf180mcu_fd_sc_mcu7t5v0__filltie
XTAP_124 vdd vss gf180mcu_fd_sc_mcu7t5v0__filltie
XTAP_102 vdd vss gf180mcu_fd_sc_mcu7t5v0__filltie
XTAP_113 vdd vss gf180mcu_fd_sc_mcu7t5v0__filltie
XFILLER_8_172 vdd vss gf180mcu_fd_sc_mcu7t5v0__fillcap_4
Xu_trans1p.gen_FB\[1\].fbn on on vdd vss gf180mcu_fd_sc_mcu7t5v0__inv_1
XFILLER_12_34 vdd vss gf180mcu_fd_sc_mcu7t5v0__fill_1
XFILLER_10_105 vdd vss gf180mcu_fd_sc_mcu7t5v0__fill_1
XFILLER_33_208 vdd vss gf180mcu_fd_sc_mcu7t5v0__fillcap_4
XFILLER_5_186 vdd vss gf180mcu_fd_sc_mcu7t5v0__fill_1
XFILLER_5_197 vdd vss gf180mcu_fd_sc_mcu7t5v0__fillcap_4
XFILLER_15_208 vdd vss gf180mcu_fd_sc_mcu7t5v0__fillcap_4
Xu_trans1p.gen_T\[3\].thrun u_trans0p.outp on vdd vss gf180mcu_fd_sc_mcu7t5v0__inv_1
XFILLER_23_66 vdd vss gf180mcu_fd_sc_mcu7t5v0__fillcap_4
XFILLER_0_37 vdd vss gf180mcu_fd_sc_mcu7t5v0__fillcap_32
XFILLER_2_101 vdd vss gf180mcu_fd_sc_mcu7t5v0__fillcap_4
XFILLER_2_156 vdd vss gf180mcu_fd_sc_mcu7t5v0__fill_2
XANTENNA_u_trans0p.gen_T\[9\].thrun_I sdi vdd vss gf180mcu_fd_sc_mcu7t5v0__antenna
XFILLER_29_2 vdd vss gf180mcu_fd_sc_mcu7t5v0__fillcap_64
XFILLER_7_226 vdd vss gf180mcu_fd_sc_mcu7t5v0__fill_2
XFILLER_7_215 vdd vss gf180mcu_fd_sc_mcu7t5v0__fill_1
XFILLER_38_108 vdd vss gf180mcu_fd_sc_mcu7t5v0__fillcap_64
XFILLER_34_314 vdd vss gf180mcu_fd_sc_mcu7t5v0__fillcap_4
XFILLER_37_141 vdd vss gf180mcu_fd_sc_mcu7t5v0__fill_1
XFILLER_20_34 vdd vss gf180mcu_fd_sc_mcu7t5v0__fill_1
XFILLER_4_207 vdd vss gf180mcu_fd_sc_mcu7t5v0__fill_2
XFILLER_16_314 vdd vss gf180mcu_fd_sc_mcu7t5v0__fillcap_4
XFILLER_3_262 vdd vss gf180mcu_fd_sc_mcu7t5v0__fill_2
XFILLER_19_141 vdd vss gf180mcu_fd_sc_mcu7t5v0__fill_1
Xu_trans0p.gen_X\[1\].crossn u_trans0p.outp u_trans0p.outn vdd vss gf180mcu_fd_sc_mcu7t5v0__inv_1
XFILLER_31_66 vdd vss gf180mcu_fd_sc_mcu7t5v0__fillcap_4
XFILLER_25_144 vdd vss gf180mcu_fd_sc_mcu7t5v0__fillcap_64
Xu_trans1p.gen_FB\[2\].fbp op op vdd vss gf180mcu_fd_sc_mcu7t5v0__inv_1
XFILLER_0_276 vdd vss gf180mcu_fd_sc_mcu7t5v0__fillcap_4
XFILLER_0_287 vdd vss gf180mcu_fd_sc_mcu7t5v0__fill_2
XTAP_169 vdd vss gf180mcu_fd_sc_mcu7t5v0__filltie
XTAP_158 vdd vss gf180mcu_fd_sc_mcu7t5v0__filltie
XTAP_147 vdd vss gf180mcu_fd_sc_mcu7t5v0__filltie
XFILLER_11_2 vdd vss gf180mcu_fd_sc_mcu7t5v0__fillcap_64
XTAP_136 vdd vss gf180mcu_fd_sc_mcu7t5v0__filltie
XFILLER_8_321 vdd vss gf180mcu_fd_sc_mcu7t5v0__fillcap_8
XTAP_125 vdd vss gf180mcu_fd_sc_mcu7t5v0__filltie
XTAP_103 vdd vss gf180mcu_fd_sc_mcu7t5v0__filltie
XTAP_114 vdd vss gf180mcu_fd_sc_mcu7t5v0__filltie
XANTENNA_u_trans0p.gen_X\[2\].crossn_I u_trans0p.outp vdd vss gf180mcu_fd_sc_mcu7t5v0__antenna
XFILLER_42_209 vdd vss gf180mcu_fd_sc_mcu7t5v0__fill_1
XFILLER_35_283 vdd vss gf180mcu_fd_sc_mcu7t5v0__fill_1
XANTENNA_u_trans0p.gen_X\[1\].crossp_I u_trans0p.outn vdd vss gf180mcu_fd_sc_mcu7t5v0__antenna
XFILLER_41_286 vdd vss gf180mcu_fd_sc_mcu7t5v0__fillcap_32
XFILLER_26_250 vdd vss gf180mcu_fd_sc_mcu7t5v0__fillcap_64
XFILLER_5_176 vdd vss gf180mcu_fd_sc_mcu7t5v0__fillcap_8
XFILLER_17_283 vdd vss gf180mcu_fd_sc_mcu7t5v0__fill_1
XFILLER_23_286 vdd vss gf180mcu_fd_sc_mcu7t5v0__fillcap_32
Xu_trans1p.gen_X\[4\].crossp on op vdd vss gf180mcu_fd_sc_mcu7t5v0__inv_1
XFILLER_2_168 vdd vss gf180mcu_fd_sc_mcu7t5v0__fill_2
XFILLER_2_179 vdd vss gf180mcu_fd_sc_mcu7t5v0__fill_2
Xu_trans1p.gen_FB\[0\].fbn on on vdd vss gf180mcu_fd_sc_mcu7t5v0__inv_1
XFILLER_18_34 vdd vss gf180mcu_fd_sc_mcu7t5v0__fill_1
XFILLER_11_212 vdd vss gf180mcu_fd_sc_mcu7t5v0__fill_1
Xu_trans1p.gen_T\[7\].thrup u_trans0p.outn op vdd vss gf180mcu_fd_sc_mcu7t5v0__inv_1
XFILLER_7_205 vdd vss gf180mcu_fd_sc_mcu7t5v0__fill_2
XFILLER_41_2 vdd vss gf180mcu_fd_sc_mcu7t5v0__fillcap_64
XFILLER_40_329 vdd vss gf180mcu_fd_sc_mcu7t5v0__fill_2
XFILLER_40_318 vdd vss gf180mcu_fd_sc_mcu7t5v0__fill_1
XFILLER_25_326 vdd vss gf180mcu_fd_sc_mcu7t5v0__fillcap_4
XANTENNA_u_trans1p.gen_T\[1\].thrup_I u_trans0p.outn vdd vss gf180mcu_fd_sc_mcu7t5v0__antenna
XFILLER_1_70 vdd vss gf180mcu_fd_sc_mcu7t5v0__fill_1
XFILLER_4_219 vdd vss gf180mcu_fd_sc_mcu7t5v0__fill_2
XANTENNA_u_trans0p.gen_FB\[3\].fbp_I u_trans0p.outp vdd vss gf180mcu_fd_sc_mcu7t5v0__antenna
XFILLER_31_318 vdd vss gf180mcu_fd_sc_mcu7t5v0__fillcap_8
XFILLER_29_66 vdd vss gf180mcu_fd_sc_mcu7t5v0__fillcap_4
XFILLER_6_37 vdd vss gf180mcu_fd_sc_mcu7t5v0__fillcap_64
XFILLER_34_101 vdd vss gf180mcu_fd_sc_mcu7t5v0__fillcap_4
XFILLER_22_329 vdd vss gf180mcu_fd_sc_mcu7t5v0__fill_2
XFILLER_22_318 vdd vss gf180mcu_fd_sc_mcu7t5v0__fill_1
XFILLER_3_274 vdd vss gf180mcu_fd_sc_mcu7t5v0__fill_2
XFILLER_13_318 vdd vss gf180mcu_fd_sc_mcu7t5v0__fillcap_8
XFILLER_39_215 vdd vss gf180mcu_fd_sc_mcu7t5v0__fillcap_64
XFILLER_31_137 vdd vss gf180mcu_fd_sc_mcu7t5v0__fillcap_4
XFILLER_16_101 vdd vss gf180mcu_fd_sc_mcu7t5v0__fillcap_4
XTAP_159 vdd vss gf180mcu_fd_sc_mcu7t5v0__filltie
XTAP_148 vdd vss gf180mcu_fd_sc_mcu7t5v0__filltie
XTAP_137 vdd vss gf180mcu_fd_sc_mcu7t5v0__filltie
XTAP_126 vdd vss gf180mcu_fd_sc_mcu7t5v0__filltie
XTAP_104 vdd vss gf180mcu_fd_sc_mcu7t5v0__filltie
XTAP_115 vdd vss gf180mcu_fd_sc_mcu7t5v0__filltie
XFILLER_26_34 vdd vss gf180mcu_fd_sc_mcu7t5v0__fill_1
XFILLER_21_170 vdd vss gf180mcu_fd_sc_mcu7t5v0__fill_2
XFILLER_13_137 vdd vss gf180mcu_fd_sc_mcu7t5v0__fillcap_4
Xu_trans1p.gen_FB\[1\].fbp op op vdd vss gf180mcu_fd_sc_mcu7t5v0__inv_1
XFILLER_37_66 vdd vss gf180mcu_fd_sc_mcu7t5v0__fillcap_4
XFILLER_2_317 vdd vss gf180mcu_fd_sc_mcu7t5v0__fill_2
XFILLER_5_144 vdd vss gf180mcu_fd_sc_mcu7t5v0__fillcap_32
XFILLER_32_243 vdd vss gf180mcu_fd_sc_mcu7t5v0__fillcap_4
Xu_trans1p.gen_T\[3\].thrup u_trans0p.outn op vdd vss gf180mcu_fd_sc_mcu7t5v0__inv_1
XFILLER_14_243 vdd vss gf180mcu_fd_sc_mcu7t5v0__fillcap_4
XFILLER_34_34 vdd vss gf180mcu_fd_sc_mcu7t5v0__fill_1
XFILLER_11_279 vdd vss gf180mcu_fd_sc_mcu7t5v0__fillcap_4
XFILLER_1_2 vdd vss gf180mcu_fd_sc_mcu7t5v0__fillcap_64
XFILLER_34_2 vdd vss gf180mcu_fd_sc_mcu7t5v0__fillcap_32
XFILLER_6_250 vdd vss gf180mcu_fd_sc_mcu7t5v0__fillcap_64
XANTENNA_u_trans1p.gen_T\[5\].thrup_I u_trans0p.outn vdd vss gf180mcu_fd_sc_mcu7t5v0__antenna
XFILLER_28_176 vdd vss gf180mcu_fd_sc_mcu7t5v0__fill_1
XFILLER_34_179 vdd vss gf180mcu_fd_sc_mcu7t5v0__fillcap_64
XFILLER_3_220 vdd vss gf180mcu_fd_sc_mcu7t5v0__fill_2
XFILLER_3_286 vdd vss gf180mcu_fd_sc_mcu7t5v0__fill_1
Xu_trans0p.gen_X\[1\].crossp u_trans0p.outn u_trans0p.outp vdd vss gf180mcu_fd_sc_mcu7t5v0__inv_1
XFILLER_40_105 vdd vss gf180mcu_fd_sc_mcu7t5v0__fill_1
XFILLER_21_330 vdd vss gf180mcu_fd_sc_mcu7t5v0__fill_1
XFILLER_0_212 vdd vss gf180mcu_fd_sc_mcu7t5v0__fill_1
XFILLER_0_201 vdd vss gf180mcu_fd_sc_mcu7t5v0__fill_2
XFILLER_16_179 vdd vss gf180mcu_fd_sc_mcu7t5v0__fillcap_64
XTAP_149 vdd vss gf180mcu_fd_sc_mcu7t5v0__filltie
XTAP_138 vdd vss gf180mcu_fd_sc_mcu7t5v0__filltie
XTAP_127 vdd vss gf180mcu_fd_sc_mcu7t5v0__filltie
XTAP_116 vdd vss gf180mcu_fd_sc_mcu7t5v0__filltie
XFILLER_0_223 vdd vss gf180mcu_fd_sc_mcu7t5v0__fill_2
XTAP_105 vdd vss gf180mcu_fd_sc_mcu7t5v0__filltie
XFILLER_22_105 vdd vss gf180mcu_fd_sc_mcu7t5v0__fill_1
XFILLER_7_70 vdd vss gf180mcu_fd_sc_mcu7t5v0__fill_1
XFILLER_42_34 vdd vss gf180mcu_fd_sc_mcu7t5v0__fill_1
XFILLER_5_326 vdd vss gf180mcu_fd_sc_mcu7t5v0__fillcap_4
XFILLER_27_208 vdd vss gf180mcu_fd_sc_mcu7t5v0__fillcap_4
XFILLER_12_37 vdd vss gf180mcu_fd_sc_mcu7t5v0__fillcap_64
XFILLER_10_108 vdd vss gf180mcu_fd_sc_mcu7t5v0__fillcap_64
XFILLER_2_329 vdd vss gf180mcu_fd_sc_mcu7t5v0__fill_2
XFILLER_5_189 vdd vss gf180mcu_fd_sc_mcu7t5v0__fill_2
Xu_trans0p.gen_T\[9\].thrun sdi u_trans0p.outn vdd vss gf180mcu_fd_sc_mcu7t5v0__inv_1
Xu_trans1p.gen_FB\[0\].fbp op op vdd vss gf180mcu_fd_sc_mcu7t5v0__inv_1
XFILLER_20_247 vdd vss gf180mcu_fd_sc_mcu7t5v0__fill_1
XFILLER_28_314 vdd vss gf180mcu_fd_sc_mcu7t5v0__fillcap_4
XFILLER_7_218 vdd vss gf180mcu_fd_sc_mcu7t5v0__fill_2
XFILLER_37_144 vdd vss gf180mcu_fd_sc_mcu7t5v0__fillcap_64
XFILLER_27_2 vdd vss gf180mcu_fd_sc_mcu7t5v0__fillcap_64
XANTENNA_u_trans1p.gen_T\[9\].thrup_I u_trans0p.outn vdd vss gf180mcu_fd_sc_mcu7t5v0__antenna
XFILLER_20_37 vdd vss gf180mcu_fd_sc_mcu7t5v0__fillcap_64
XFILLER_19_144 vdd vss gf180mcu_fd_sc_mcu7t5v0__fillcap_64
XFILLER_3_232 vdd vss gf180mcu_fd_sc_mcu7t5v0__fill_2
XANTENNA_u_trans0p.gen_T\[0\].thrup_I sig vdd vss gf180mcu_fd_sc_mcu7t5v0__antenna
XFILLER_0_235 vdd vss gf180mcu_fd_sc_mcu7t5v0__fill_2
XFILLER_30_172 vdd vss gf180mcu_fd_sc_mcu7t5v0__fillcap_4
XTAP_139 vdd vss gf180mcu_fd_sc_mcu7t5v0__filltie
XTAP_128 vdd vss gf180mcu_fd_sc_mcu7t5v0__filltie
XTAP_117 vdd vss gf180mcu_fd_sc_mcu7t5v0__filltie
XPHY_0 vdd vss gf180mcu_fd_sc_mcu7t5v0__endcap
XTAP_106 vdd vss gf180mcu_fd_sc_mcu7t5v0__filltie
XFILLER_38_250 vdd vss gf180mcu_fd_sc_mcu7t5v0__fillcap_64
XFILLER_29_283 vdd vss gf180mcu_fd_sc_mcu7t5v0__fill_1
XFILLER_12_172 vdd vss gf180mcu_fd_sc_mcu7t5v0__fillcap_4
XFILLER_8_176 vdd vss gf180mcu_fd_sc_mcu7t5v0__fill_1
XFILLER_35_286 vdd vss gf180mcu_fd_sc_mcu7t5v0__fillcap_32
Xu_trans0p.gen_T\[5\].thrun sdi u_trans0p.outn vdd vss gf180mcu_fd_sc_mcu7t5v0__inv_1
XFILLER_41_212 vdd vss gf180mcu_fd_sc_mcu7t5v0__fill_1
XFILLER_17_286 vdd vss gf180mcu_fd_sc_mcu7t5v0__fillcap_32
XFILLER_23_212 vdd vss gf180mcu_fd_sc_mcu7t5v0__fill_1
XANTENNA_u_trans0p.gen_X\[1\].crossn_I u_trans0p.outp vdd vss gf180mcu_fd_sc_mcu7t5v0__antenna
XFILLER_13_70 vdd vss gf180mcu_fd_sc_mcu7t5v0__fill_1
XFILLER_2_105 vdd vss gf180mcu_fd_sc_mcu7t5v0__fill_1
XANTENNA_u_trans0p.gen_X\[0\].crossp_I u_trans0p.outn vdd vss gf180mcu_fd_sc_mcu7t5v0__antenna
XFILLER_37_326 vdd vss gf180mcu_fd_sc_mcu7t5v0__fillcap_4
XFILLER_1_171 vdd vss gf180mcu_fd_sc_mcu7t5v0__fill_2
Xu_trans0p.gen_X\[4\].crossn u_trans0p.outp u_trans0p.outn vdd vss gf180mcu_fd_sc_mcu7t5v0__inv_1
XFILLER_18_37 vdd vss gf180mcu_fd_sc_mcu7t5v0__fillcap_64
XFILLER_11_215 vdd vss gf180mcu_fd_sc_mcu7t5v0__fillcap_64
XFILLER_34_329 vdd vss gf180mcu_fd_sc_mcu7t5v0__fill_2
XFILLER_34_318 vdd vss gf180mcu_fd_sc_mcu7t5v0__fill_1
XFILLER_19_326 vdd vss gf180mcu_fd_sc_mcu7t5v0__fillcap_4
XFILLER_6_230 vdd vss gf180mcu_fd_sc_mcu7t5v0__fill_2
XFILLER_28_101 vdd vss gf180mcu_fd_sc_mcu7t5v0__fillcap_4
XFILLER_25_318 vdd vss gf180mcu_fd_sc_mcu7t5v0__fillcap_8
XFILLER_1_73 vdd vss gf180mcu_fd_sc_mcu7t5v0__fillcap_64
XFILLER_16_329 vdd vss gf180mcu_fd_sc_mcu7t5v0__fill_2
XFILLER_16_318 vdd vss gf180mcu_fd_sc_mcu7t5v0__fill_1
XFILLER_3_211 vdd vss gf180mcu_fd_sc_mcu7t5v0__fill_2
XFILLER_3_244 vdd vss gf180mcu_fd_sc_mcu7t5v0__fill_2
XFILLER_3_266 vdd vss gf180mcu_fd_sc_mcu7t5v0__fill_2
XFILLER_30_321 vdd vss gf180mcu_fd_sc_mcu7t5v0__fillcap_8
XFILLER_25_137 vdd vss gf180mcu_fd_sc_mcu7t5v0__fillcap_4
XANTENNA_u_trans0p.gen_FB\[3\].fbn_I u_trans0p.outn vdd vss gf180mcu_fd_sc_mcu7t5v0__antenna
XANTENNA_u_trans1p.gen_T\[1\].thrun_I u_trans0p.outp vdd vss gf180mcu_fd_sc_mcu7t5v0__antenna
XFILLER_12_321 vdd vss gf180mcu_fd_sc_mcu7t5v0__fillcap_8
XFILLER_8_314 vdd vss gf180mcu_fd_sc_mcu7t5v0__fillcap_4
XFILLER_0_247 vdd vss gf180mcu_fd_sc_mcu7t5v0__fill_1
XFILLER_0_258 vdd vss gf180mcu_fd_sc_mcu7t5v0__fill_2
XFILLER_21_70 vdd vss gf180mcu_fd_sc_mcu7t5v0__fill_1
XTAP_129 vdd vss gf180mcu_fd_sc_mcu7t5v0__filltie
XANTENNA_u_trans0p.gen_T\[4\].thrup_I sig vdd vss gf180mcu_fd_sc_mcu7t5v0__antenna
XTAP_118 vdd vss gf180mcu_fd_sc_mcu7t5v0__filltie
XPHY_1 vdd vss gf180mcu_fd_sc_mcu7t5v0__endcap
XTAP_107 vdd vss gf180mcu_fd_sc_mcu7t5v0__filltie
XFILLER_42_69 vdd vss gf180mcu_fd_sc_mcu7t5v0__fill_1
XFILLER_26_37 vdd vss gf180mcu_fd_sc_mcu7t5v0__fillcap_64
Xu_trans0p.gen_T\[1\].thrun sdi u_trans0p.outn vdd vss gf180mcu_fd_sc_mcu7t5v0__inv_1
XFILLER_41_279 vdd vss gf180mcu_fd_sc_mcu7t5v0__fillcap_4
XFILLER_26_243 vdd vss gf180mcu_fd_sc_mcu7t5v0__fillcap_4
Xu_trans0p.gen_T\[9\].thrup sig u_trans0p.outp vdd vss gf180mcu_fd_sc_mcu7t5v0__inv_1
XFILLER_23_279 vdd vss gf180mcu_fd_sc_mcu7t5v0__fillcap_4
XFILLER_1_183 vdd vss gf180mcu_fd_sc_mcu7t5v0__fill_2
XFILLER_1_161 vdd vss gf180mcu_fd_sc_mcu7t5v0__fill_2
XFILLER_34_37 vdd vss gf180mcu_fd_sc_mcu7t5v0__fillcap_64
XFILLER_9_283 vdd vss gf180mcu_fd_sc_mcu7t5v0__fill_1
XFILLER_7_209 vdd vss gf180mcu_fd_sc_mcu7t5v0__fillcap_4
XFILLER_6_242 vdd vss gf180mcu_fd_sc_mcu7t5v0__fill_2
XFILLER_33_330 vdd vss gf180mcu_fd_sc_mcu7t5v0__fill_1
XFILLER_28_179 vdd vss gf180mcu_fd_sc_mcu7t5v0__fillcap_64
XANTENNA_u_trans1p.gen_FB\[2\].fbp_I op vdd vss gf180mcu_fd_sc_mcu7t5v0__antenna
XFILLER_3_256 vdd vss gf180mcu_fd_sc_mcu7t5v0__fill_2
XFILLER_3_278 vdd vss gf180mcu_fd_sc_mcu7t5v0__fill_2
XFILLER_3_289 vdd vss gf180mcu_fd_sc_mcu7t5v0__fillcap_32
XFILLER_34_105 vdd vss gf180mcu_fd_sc_mcu7t5v0__fill_1
XFILLER_32_2 vdd vss gf180mcu_fd_sc_mcu7t5v0__fillcap_32
XFILLER_19_70 vdd vss gf180mcu_fd_sc_mcu7t5v0__fill_1
XFILLER_15_330 vdd vss gf180mcu_fd_sc_mcu7t5v0__fill_1
XANTENNA_u_trans1p.gen_T\[5\].thrun_I u_trans0p.outp vdd vss gf180mcu_fd_sc_mcu7t5v0__antenna
XFILLER_40_108 vdd vss gf180mcu_fd_sc_mcu7t5v0__fillcap_64
XFILLER_16_105 vdd vss gf180mcu_fd_sc_mcu7t5v0__fill_1
XFILLER_39_208 vdd vss gf180mcu_fd_sc_mcu7t5v0__fillcap_4
XFILLER_22_108 vdd vss gf180mcu_fd_sc_mcu7t5v0__fillcap_32
XANTENNA_u_trans0p.gen_T\[8\].thrup_I sig vdd vss gf180mcu_fd_sc_mcu7t5v0__antenna
XTAP_119 vdd vss gf180mcu_fd_sc_mcu7t5v0__filltie
XPHY_2 vdd vss gf180mcu_fd_sc_mcu7t5v0__endcap
XTAP_108 vdd vss gf180mcu_fd_sc_mcu7t5v0__filltie
XFILLER_42_37 vdd vss gf180mcu_fd_sc_mcu7t5v0__fillcap_32
XFILLER_21_141 vdd vss gf180mcu_fd_sc_mcu7t5v0__fill_1
XFILLER_21_152 vdd vss gf180mcu_fd_sc_mcu7t5v0__fill_2
XFILLER_7_73 vdd vss gf180mcu_fd_sc_mcu7t5v0__fillcap_64
XFILLER_8_101 vdd vss gf180mcu_fd_sc_mcu7t5v0__fillcap_4
XFILLER_5_318 vdd vss gf180mcu_fd_sc_mcu7t5v0__fillcap_8
Xu_trans0p.gen_T\[5\].thrup sig u_trans0p.outp vdd vss gf180mcu_fd_sc_mcu7t5v0__inv_1
XFILLER_5_137 vdd vss gf180mcu_fd_sc_mcu7t5v0__fillcap_4
XFILLER_32_247 vdd vss gf180mcu_fd_sc_mcu7t5v0__fill_1
XFILLER_27_70 vdd vss gf180mcu_fd_sc_mcu7t5v0__fill_1
XTAP_280 vdd vss gf180mcu_fd_sc_mcu7t5v0__filltie
XFILLER_14_247 vdd vss gf180mcu_fd_sc_mcu7t5v0__fill_1
XFILLER_1_195 vdd vss gf180mcu_fd_sc_mcu7t5v0__fill_2
Xu_trans1p.gen_X\[0\].crossn op on vdd vss gf180mcu_fd_sc_mcu7t5v0__inv_1
Xu_trans0p.gen_X\[4\].crossp u_trans0p.outn u_trans0p.outp vdd vss gf180mcu_fd_sc_mcu7t5v0__inv_1
XFILLER_10_250 vdd vss gf180mcu_fd_sc_mcu7t5v0__fillcap_64
XFILLER_35_70 vdd vss gf180mcu_fd_sc_mcu7t5v0__fill_1
XFILLER_25_2 vdd vss gf180mcu_fd_sc_mcu7t5v0__fillcap_64
XANTENNA_u_trans1p.gen_T\[9\].thrun_I u_trans0p.outp vdd vss gf180mcu_fd_sc_mcu7t5v0__antenna
XFILLER_24_172 vdd vss gf180mcu_fd_sc_mcu7t5v0__fillcap_4
XTAP_109 vdd vss gf180mcu_fd_sc_mcu7t5v0__filltie
XPHY_3 vdd vss gf180mcu_fd_sc_mcu7t5v0__endcap
Xu_trans0p.gen_T\[1\].thrup sig u_trans0p.outp vdd vss gf180mcu_fd_sc_mcu7t5v0__inv_1
XFILLER_29_286 vdd vss gf180mcu_fd_sc_mcu7t5v0__fillcap_32
XFILLER_21_164 vdd vss gf180mcu_fd_sc_mcu7t5v0__fill_2
XANTENNA_u_trans0p.gen_T\[0\].thrun_I sdi vdd vss gf180mcu_fd_sc_mcu7t5v0__antenna
XFILLER_35_212 vdd vss gf180mcu_fd_sc_mcu7t5v0__fill_1
XFILLER_8_179 vdd vss gf180mcu_fd_sc_mcu7t5v0__fillcap_64
XFILLER_41_215 vdd vss gf180mcu_fd_sc_mcu7t5v0__fillcap_64
XFILLER_17_212 vdd vss gf180mcu_fd_sc_mcu7t5v0__fill_1
XFILLER_23_215 vdd vss gf180mcu_fd_sc_mcu7t5v0__fillcap_64
XFILLER_2_108 vdd vss gf180mcu_fd_sc_mcu7t5v0__fillcap_32
XTAP_281 vdd vss gf180mcu_fd_sc_mcu7t5v0__filltie
XTAP_270 vdd vss gf180mcu_fd_sc_mcu7t5v0__filltie
XFILLER_37_318 vdd vss gf180mcu_fd_sc_mcu7t5v0__fillcap_8
XFILLER_13_73 vdd vss gf180mcu_fd_sc_mcu7t5v0__fillcap_64
XFILLER_1_152 vdd vss gf180mcu_fd_sc_mcu7t5v0__fill_2
XFILLER_1_141 vdd vss gf180mcu_fd_sc_mcu7t5v0__fill_1
XFILLER_28_329 vdd vss gf180mcu_fd_sc_mcu7t5v0__fill_2
XFILLER_28_318 vdd vss gf180mcu_fd_sc_mcu7t5v0__fill_1
XFILLER_19_318 vdd vss gf180mcu_fd_sc_mcu7t5v0__fillcap_8
XANTENNA_u_trans0p.gen_X\[0\].crossn_I u_trans0p.outp vdd vss gf180mcu_fd_sc_mcu7t5v0__antenna
XFILLER_37_137 vdd vss gf180mcu_fd_sc_mcu7t5v0__fillcap_4
XFILLER_6_222 vdd vss gf180mcu_fd_sc_mcu7t5v0__fill_2
XFILLER_6_211 vdd vss gf180mcu_fd_sc_mcu7t5v0__fill_2
XFILLER_24_321 vdd vss gf180mcu_fd_sc_mcu7t5v0__fillcap_8
XFILLER_19_137 vdd vss gf180mcu_fd_sc_mcu7t5v0__fillcap_4
XFILLER_18_2 vdd vss gf180mcu_fd_sc_mcu7t5v0__fillcap_32
XFILLER_0_217 vdd vss gf180mcu_fd_sc_mcu7t5v0__fill_2
XFILLER_21_73 vdd vss gf180mcu_fd_sc_mcu7t5v0__fillcap_64
XFILLER_38_243 vdd vss gf180mcu_fd_sc_mcu7t5v0__fillcap_4
XFILLER_30_176 vdd vss gf180mcu_fd_sc_mcu7t5v0__fill_1
XPHY_4 vdd vss gf180mcu_fd_sc_mcu7t5v0__endcap
XFILLER_21_176 vdd vss gf180mcu_fd_sc_mcu7t5v0__fillcap_32
XFILLER_35_279 vdd vss gf180mcu_fd_sc_mcu7t5v0__fillcap_4
XFILLER_12_176 vdd vss gf180mcu_fd_sc_mcu7t5v0__fill_1
XANTENNA_u_trans0p.gen_T\[4\].thrun_I sdi vdd vss gf180mcu_fd_sc_mcu7t5v0__antenna
XFILLER_17_279 vdd vss gf180mcu_fd_sc_mcu7t5v0__fillcap_4
XFILLER_1_301 vdd vss gf180mcu_fd_sc_mcu7t5v0__fillcap_16
XFILLER_4_172 vdd vss gf180mcu_fd_sc_mcu7t5v0__fillcap_4
XTAP_282 vdd vss gf180mcu_fd_sc_mcu7t5v0__filltie
XTAP_271 vdd vss gf180mcu_fd_sc_mcu7t5v0__filltie
XTAP_260 vdd vss gf180mcu_fd_sc_mcu7t5v0__filltie
XFILLER_9_286 vdd vss gf180mcu_fd_sc_mcu7t5v0__fillcap_32
Xu_trans1p.gen_X\[0\].crossp on op vdd vss gf180mcu_fd_sc_mcu7t5v0__inv_1
XFILLER_11_208 vdd vss gf180mcu_fd_sc_mcu7t5v0__fillcap_4
XFILLER_27_330 vdd vss gf180mcu_fd_sc_mcu7t5v0__fill_1
XFILLER_6_234 vdd vss gf180mcu_fd_sc_mcu7t5v0__fill_2
XFILLER_1_66 vdd vss gf180mcu_fd_sc_mcu7t5v0__fillcap_4
XFILLER_28_105 vdd vss gf180mcu_fd_sc_mcu7t5v0__fill_1
Xu_trans1p.gen_T\[6\].thrun u_trans0p.outp on vdd vss gf180mcu_fd_sc_mcu7t5v0__inv_1
XFILLER_42_174 vdd vss gf180mcu_fd_sc_mcu7t5v0__fill_1
XFILLER_34_108 vdd vss gf180mcu_fd_sc_mcu7t5v0__fillcap_64
XFILLER_30_314 vdd vss gf180mcu_fd_sc_mcu7t5v0__fillcap_4
XFILLER_19_73 vdd vss gf180mcu_fd_sc_mcu7t5v0__fillcap_64
XFILLER_3_215 vdd vss gf180mcu_fd_sc_mcu7t5v0__fill_1
XFILLER_3_226 vdd vss gf180mcu_fd_sc_mcu7t5v0__fill_2
XFILLER_33_141 vdd vss gf180mcu_fd_sc_mcu7t5v0__fill_1
XFILLER_2_281 vdd vss gf180mcu_fd_sc_mcu7t5v0__fill_2
XFILLER_16_108 vdd vss gf180mcu_fd_sc_mcu7t5v0__fillcap_64
XFILLER_12_314 vdd vss gf180mcu_fd_sc_mcu7t5v0__fillcap_4
XFILLER_8_329 vdd vss gf180mcu_fd_sc_mcu7t5v0__fill_2
XFILLER_8_318 vdd vss gf180mcu_fd_sc_mcu7t5v0__fill_1
XFILLER_0_229 vdd vss gf180mcu_fd_sc_mcu7t5v0__fill_2
XFILLER_0_207 vdd vss gf180mcu_fd_sc_mcu7t5v0__fill_2
XANTENNA_u_trans1p.gen_FB\[2\].fbn_I on vdd vss gf180mcu_fd_sc_mcu7t5v0__antenna
XFILLER_30_2 vdd vss gf180mcu_fd_sc_mcu7t5v0__fillcap_32
XFILLER_15_141 vdd vss gf180mcu_fd_sc_mcu7t5v0__fill_1
XPHY_5 vdd vss gf180mcu_fd_sc_mcu7t5v0__endcap
XFILLER_21_144 vdd vss gf180mcu_fd_sc_mcu7t5v0__fillcap_8
XANTENNA_u_trans0p.gen_T\[8\].thrun_I sdi vdd vss gf180mcu_fd_sc_mcu7t5v0__antenna
XFILLER_4_321 vdd vss gf180mcu_fd_sc_mcu7t5v0__fillcap_8
XFILLER_26_247 vdd vss gf180mcu_fd_sc_mcu7t5v0__fill_1
XFILLER_7_192 vdd vss gf180mcu_fd_sc_mcu7t5v0__fillcap_8
XFILLER_27_73 vdd vss gf180mcu_fd_sc_mcu7t5v0__fillcap_64
XFILLER_40_250 vdd vss gf180mcu_fd_sc_mcu7t5v0__fillcap_64
XFILLER_31_283 vdd vss gf180mcu_fd_sc_mcu7t5v0__fill_1
XFILLER_4_195 vdd vss gf180mcu_fd_sc_mcu7t5v0__fill_2
XTAP_283 vdd vss gf180mcu_fd_sc_mcu7t5v0__filltie
XTAP_272 vdd vss gf180mcu_fd_sc_mcu7t5v0__filltie
XTAP_261 vdd vss gf180mcu_fd_sc_mcu7t5v0__filltie
XTAP_250 vdd vss gf180mcu_fd_sc_mcu7t5v0__filltie
XFILLER_22_250 vdd vss gf180mcu_fd_sc_mcu7t5v0__fillcap_64
XANTENNA_u_trans1p.gen_X\[4\].crossp_I on vdd vss gf180mcu_fd_sc_mcu7t5v0__antenna
XFILLER_13_283 vdd vss gf180mcu_fd_sc_mcu7t5v0__fill_1
XFILLER_8_2 vdd vss gf180mcu_fd_sc_mcu7t5v0__fillcap_32
XFILLER_1_165 vdd vss gf180mcu_fd_sc_mcu7t5v0__fill_2
XFILLER_1_154 vdd vss gf180mcu_fd_sc_mcu7t5v0__fill_1
Xu_trans1p.gen_T\[2\].thrun u_trans0p.outp on vdd vss gf180mcu_fd_sc_mcu7t5v0__inv_1
XFILLER_6_246 vdd vss gf180mcu_fd_sc_mcu7t5v0__fill_2
XFILLER_36_172 vdd vss gf180mcu_fd_sc_mcu7t5v0__fillcap_4
XFILLER_3_205 vdd vss gf180mcu_fd_sc_mcu7t5v0__fill_2
XFILLER_3_238 vdd vss gf180mcu_fd_sc_mcu7t5v0__fill_2
XFILLER_42_142 vdd vss gf180mcu_fd_sc_mcu7t5v0__fillcap_32
XFILLER_35_73 vdd vss gf180mcu_fd_sc_mcu7t5v0__fillcap_64
XFILLER_21_326 vdd vss gf180mcu_fd_sc_mcu7t5v0__fillcap_4
XFILLER_18_172 vdd vss gf180mcu_fd_sc_mcu7t5v0__fillcap_4
XFILLER_2_293 vdd vss gf180mcu_fd_sc_mcu7t5v0__fill_2
XFILLER_30_101 vdd vss gf180mcu_fd_sc_mcu7t5v0__fillcap_4
XFILLER_7_330 vdd vss gf180mcu_fd_sc_mcu7t5v0__fill_1
XFILLER_7_66 vdd vss gf180mcu_fd_sc_mcu7t5v0__fillcap_4
XPHY_6 vdd vss gf180mcu_fd_sc_mcu7t5v0__endcap
XFILLER_23_2 vdd vss gf180mcu_fd_sc_mcu7t5v0__fillcap_64
XFILLER_29_212 vdd vss gf180mcu_fd_sc_mcu7t5v0__fill_1
XFILLER_12_101 vdd vss gf180mcu_fd_sc_mcu7t5v0__fillcap_4
XFILLER_8_105 vdd vss gf180mcu_fd_sc_mcu7t5v0__fill_1
XFILLER_35_215 vdd vss gf180mcu_fd_sc_mcu7t5v0__fillcap_64
Xu_trans1p.gen_X\[3\].crossn op on vdd vss gf180mcu_fd_sc_mcu7t5v0__inv_1
XFILLER_17_215 vdd vss gf180mcu_fd_sc_mcu7t5v0__fillcap_64
XFILLER_1_325 vdd vss gf180mcu_fd_sc_mcu7t5v0__fillcap_4
XFILLER_4_34 vdd vss gf180mcu_fd_sc_mcu7t5v0__fill_1
XFILLER_4_185 vdd vss gf180mcu_fd_sc_mcu7t5v0__fill_2
XTAP_284 vdd vss gf180mcu_fd_sc_mcu7t5v0__filltie
XTAP_273 vdd vss gf180mcu_fd_sc_mcu7t5v0__filltie
XTAP_262 vdd vss gf180mcu_fd_sc_mcu7t5v0__filltie
XTAP_251 vdd vss gf180mcu_fd_sc_mcu7t5v0__filltie
XTAP_240 vdd vss gf180mcu_fd_sc_mcu7t5v0__filltie
XANTENNA_u_trans1p.gen_T\[0\].thrup_I u_trans0p.outn vdd vss gf180mcu_fd_sc_mcu7t5v0__antenna
XFILLER_1_177 vdd vss gf180mcu_fd_sc_mcu7t5v0__fill_2
XFILLER_1_144 vdd vss gf180mcu_fd_sc_mcu7t5v0__fillcap_8
XFILLER_36_321 vdd vss gf180mcu_fd_sc_mcu7t5v0__fillcap_8
XFILLER_10_243 vdd vss gf180mcu_fd_sc_mcu7t5v0__fillcap_4
XFILLER_6_203 vdd vss gf180mcu_fd_sc_mcu7t5v0__fill_2
XFILLER_18_321 vdd vss gf180mcu_fd_sc_mcu7t5v0__fillcap_8
XTAP_90 vdd vss gf180mcu_fd_sc_mcu7t5v0__filltie
Xu_trans1p.gen_T\[6\].thrup u_trans0p.outn op vdd vss gf180mcu_fd_sc_mcu7t5v0__inv_1
XFILLER_2_250 vdd vss gf180mcu_fd_sc_mcu7t5v0__fill_1
XFILLER_2_261 vdd vss gf180mcu_fd_sc_mcu7t5v0__fill_2
XFILLER_0_209 vdd vss gf180mcu_fd_sc_mcu7t5v0__fill_1
XANTENNA_u_trans0p.gen_FB\[2\].fbp_I u_trans0p.outp vdd vss gf180mcu_fd_sc_mcu7t5v0__antenna
XFILLER_24_176 vdd vss gf180mcu_fd_sc_mcu7t5v0__fill_1
XPHY_7 vdd vss gf180mcu_fd_sc_mcu7t5v0__endcap
XFILLER_30_179 vdd vss gf180mcu_fd_sc_mcu7t5v0__fillcap_64
XFILLER_16_2 vdd vss gf180mcu_fd_sc_mcu7t5v0__fillcap_32
XFILLER_29_279 vdd vss gf180mcu_fd_sc_mcu7t5v0__fillcap_4
XFILLER_12_179 vdd vss gf180mcu_fd_sc_mcu7t5v0__fillcap_64
XFILLER_41_208 vdd vss gf180mcu_fd_sc_mcu7t5v0__fillcap_4
XTAP_285 vdd vss gf180mcu_fd_sc_mcu7t5v0__filltie
XTAP_274 vdd vss gf180mcu_fd_sc_mcu7t5v0__filltie
XFILLER_39_330 vdd vss gf180mcu_fd_sc_mcu7t5v0__fill_1
XTAP_263 vdd vss gf180mcu_fd_sc_mcu7t5v0__filltie
XTAP_252 vdd vss gf180mcu_fd_sc_mcu7t5v0__filltie
XTAP_241 vdd vss gf180mcu_fd_sc_mcu7t5v0__filltie
XTAP_230 vdd vss gf180mcu_fd_sc_mcu7t5v0__filltie
XFILLER_23_208 vdd vss gf180mcu_fd_sc_mcu7t5v0__fillcap_4
XANTENNA_u_trans1p.gen_T\[4\].thrup_I u_trans0p.outn vdd vss gf180mcu_fd_sc_mcu7t5v0__antenna
XFILLER_13_66 vdd vss gf180mcu_fd_sc_mcu7t5v0__fillcap_4
XFILLER_1_189 vdd vss gf180mcu_fd_sc_mcu7t5v0__fill_2
XFILLER_9_212 vdd vss gf180mcu_fd_sc_mcu7t5v0__fill_1
XFILLER_42_325 vdd vss gf180mcu_fd_sc_mcu7t5v0__fillcap_4
XFILLER_42_314 vdd vss gf180mcu_fd_sc_mcu7t5v0__fill_1
XFILLER_6_226 vdd vss gf180mcu_fd_sc_mcu7t5v0__fill_2
XFILLER_6_215 vdd vss gf180mcu_fd_sc_mcu7t5v0__fillcap_4
Xu_trans1p.gen_T\[2\].thrup u_trans0p.outn op vdd vss gf180mcu_fd_sc_mcu7t5v0__inv_1
Xu_trans0p.gen_X\[0\].crossn u_trans0p.outp u_trans0p.outn vdd vss gf180mcu_fd_sc_mcu7t5v0__inv_1
XFILLER_28_108 vdd vss gf180mcu_fd_sc_mcu7t5v0__fillcap_64
XFILLER_24_314 vdd vss gf180mcu_fd_sc_mcu7t5v0__fillcap_4
XFILLER_10_34 vdd vss gf180mcu_fd_sc_mcu7t5v0__fill_1
XTAP_91 vdd vss gf180mcu_fd_sc_mcu7t5v0__filltie
XFILLER_42_177 vdd vss gf180mcu_fd_sc_mcu7t5v0__fillcap_32
XFILLER_27_141 vdd vss gf180mcu_fd_sc_mcu7t5v0__fill_1
XFILLER_2_273 vdd vss gf180mcu_fd_sc_mcu7t5v0__fill_2
XFILLER_33_144 vdd vss gf180mcu_fd_sc_mcu7t5v0__fillcap_64
X_8_ _8_/ZN vdd vss gf180mcu_fd_sc_mcu7t5v0__tiel
XFILLER_21_66 vdd vss gf180mcu_fd_sc_mcu7t5v0__fillcap_4
XFILLER_38_247 vdd vss gf180mcu_fd_sc_mcu7t5v0__fill_1
XFILLER_15_144 vdd vss gf180mcu_fd_sc_mcu7t5v0__fillcap_64
XPHY_8 vdd vss gf180mcu_fd_sc_mcu7t5v0__endcap
XFILLER_21_158 vdd vss gf180mcu_fd_sc_mcu7t5v0__fill_2