* NGSPICE file created from user_proj_example.ext - technology: gf180mcuC

* Black-box entry subcircuit for gf180mcu_fd_sc_mcu7t5v0__filltie abstract view
.subckt gf180mcu_fd_sc_mcu7t5v0__filltie VDD VSS
.ends

* Black-box entry subcircuit for gf180mcu_fd_sc_mcu7t5v0__fill_1 abstract view
.subckt gf180mcu_fd_sc_mcu7t5v0__fill_1 VDD VSS
.ends

* Black-box entry subcircuit for gf180mcu_fd_sc_mcu7t5v0__fill_2 abstract view
.subckt gf180mcu_fd_sc_mcu7t5v0__fill_2 VDD VSS
.ends

* Black-box entry subcircuit for gf180mcu_fd_sc_mcu7t5v0__fillcap_64 abstract view
.subckt gf180mcu_fd_sc_mcu7t5v0__fillcap_64 VDD VSS
.ends

* Black-box entry subcircuit for gf180mcu_fd_sc_mcu7t5v0__fillcap_4 abstract view
.subckt gf180mcu_fd_sc_mcu7t5v0__fillcap_4 VDD VSS
.ends

* Black-box entry subcircuit for gf180mcu_fd_sc_mcu7t5v0__antenna abstract view
.subckt gf180mcu_fd_sc_mcu7t5v0__antenna I VDD VSS
.ends

* Black-box entry subcircuit for gf180mcu_fd_sc_mcu7t5v0__fillcap_16 abstract view
.subckt gf180mcu_fd_sc_mcu7t5v0__fillcap_16 VDD VSS
.ends

* Black-box entry subcircuit for gf180mcu_fd_sc_mcu7t5v0__tiel abstract view
.subckt gf180mcu_fd_sc_mcu7t5v0__tiel ZN VDD VSS
.ends

* Black-box entry subcircuit for gf180mcu_fd_sc_mcu7t5v0__fillcap_8 abstract view
.subckt gf180mcu_fd_sc_mcu7t5v0__fillcap_8 VDD VSS
.ends

* Black-box entry subcircuit for gf180mcu_fd_sc_mcu7t5v0__fillcap_32 abstract view
.subckt gf180mcu_fd_sc_mcu7t5v0__fillcap_32 VDD VSS
.ends

* Black-box entry subcircuit for gf180mcu_fd_sc_mcu7t5v0__tieh abstract view
.subckt gf180mcu_fd_sc_mcu7t5v0__tieh Z VDD VSS
.ends

* Black-box entry subcircuit for gf180mcu_fd_sc_mcu7t5v0__invz_1 abstract view
.subckt gf180mcu_fd_sc_mcu7t5v0__invz_1 EN I ZN VDD VSS
.ends

* Black-box entry subcircuit for gf180mcu_fd_sc_mcu7t5v0__dffq_1 abstract view
.subckt gf180mcu_fd_sc_mcu7t5v0__dffq_1 D CLK Q VDD VSS
.ends

* Black-box entry subcircuit for gf180mcu_fd_sc_mcu7t5v0__endcap abstract view
.subckt gf180mcu_fd_sc_mcu7t5v0__endcap VDD VSS
.ends

* Black-box entry subcircuit for gf180mcu_fd_sc_mcu7t5v0__inv_1 abstract view
.subckt gf180mcu_fd_sc_mcu7t5v0__inv_1 I ZN VDD VSS
.ends

* Black-box entry subcircuit for gf180mcu_fd_sc_mcu7t5v0__inv_2 abstract view
.subckt gf180mcu_fd_sc_mcu7t5v0__inv_2 I ZN VDD VSS
.ends

* Black-box entry subcircuit for gf180mcu_fd_sc_mcu7t5v0__clkbuf_8 abstract view
.subckt gf180mcu_fd_sc_mcu7t5v0__clkbuf_8 I Z VDD VSS
.ends

* Black-box entry subcircuit for gf180mcu_fd_sc_mcu7t5v0__clkbuf_1 abstract view
.subckt gf180mcu_fd_sc_mcu7t5v0__clkbuf_1 I Z VDD VSS
.ends

* Black-box entry subcircuit for gf180mcu_fd_sc_mcu7t5v0__buf_2 abstract view
.subckt gf180mcu_fd_sc_mcu7t5v0__buf_2 I Z VDD VSS
.ends

* Black-box entry subcircuit for gf180mcu_fd_sc_mcu7t5v0__clkinv_2 abstract view
.subckt gf180mcu_fd_sc_mcu7t5v0__clkinv_2 I ZN VDD VSS
.ends

* Black-box entry subcircuit for gf180mcu_fd_sc_mcu7t5v0__clkbuf_2 abstract view
.subckt gf180mcu_fd_sc_mcu7t5v0__clkbuf_2 I Z VDD VSS
.ends

* Black-box entry subcircuit for gf180mcu_fd_sc_mcu7t5v0__buf_1 abstract view
.subckt gf180mcu_fd_sc_mcu7t5v0__buf_1 I Z VDD VSS
.ends

* Black-box entry subcircuit for gf180mcu_fd_sc_mcu7t5v0__or2_1 abstract view
.subckt gf180mcu_fd_sc_mcu7t5v0__or2_1 A1 A2 Z VDD VSS
.ends

* Black-box entry subcircuit for gf180mcu_fd_sc_mcu7t5v0__clkinv_1 abstract view
.subckt gf180mcu_fd_sc_mcu7t5v0__clkinv_1 I ZN VDD VSS
.ends

.subckt user_proj_example io_in[0] io_in[10] io_in[11] io_in[12] io_in[13] io_in[14]
+ io_in[15] io_in[16] io_in[17] io_in[18] io_in[19] io_in[1] io_in[20] io_in[21] io_in[22]
+ io_in[23] io_in[24] io_in[25] io_in[26] io_in[27] io_in[28] io_in[29] io_in[2] io_in[30]
+ io_in[31] io_in[32] io_in[33] io_in[34] io_in[35] io_in[36] io_in[37] io_in[3] io_in[4]
+ io_in[5] io_in[6] io_in[7] io_in[8] io_in[9] io_oeb[0] io_oeb[10] io_oeb[11] io_oeb[12]
+ io_oeb[13] io_oeb[14] io_oeb[15] io_oeb[16] io_oeb[17] io_oeb[18] io_oeb[19] io_oeb[1]
+ io_oeb[20] io_oeb[21] io_oeb[22] io_oeb[23] io_oeb[24] io_oeb[25] io_oeb[26] io_oeb[27]
+ io_oeb[28] io_oeb[29] io_oeb[2] io_oeb[30] io_oeb[31] io_oeb[32] io_oeb[33] io_oeb[34]
+ io_oeb[35] io_oeb[36] io_oeb[37] io_oeb[3] io_oeb[4] io_oeb[5] io_oeb[6] io_oeb[7]
+ io_oeb[8] io_oeb[9] io_out[0] io_out[10] io_out[11] io_out[12] io_out[13] io_out[14]
+ io_out[15] io_out[16] io_out[17] io_out[18] io_out[19] io_out[1] io_out[20] io_out[21]
+ io_out[22] io_out[23] io_out[24] io_out[25] io_out[26] io_out[27] io_out[28] io_out[29]
+ io_out[2] io_out[30] io_out[31] io_out[32] io_out[33] io_out[34] io_out[35] io_out[36]
+ io_out[37] io_out[3] io_out[4] io_out[5] io_out[6] io_out[7] io_out[8] io_out[9]
+ irq[0] irq[1] irq[2] la_data_in[0] la_data_in[10] la_data_in[11] la_data_in[12]
+ la_data_in[13] la_data_in[14] la_data_in[15] la_data_in[16] la_data_in[17] la_data_in[18]
+ la_data_in[19] la_data_in[1] la_data_in[20] la_data_in[21] la_data_in[22] la_data_in[23]
+ la_data_in[24] la_data_in[25] la_data_in[26] la_data_in[27] la_data_in[28] la_data_in[29]
+ la_data_in[2] la_data_in[30] la_data_in[31] la_data_in[32] la_data_in[33] la_data_in[34]
+ la_data_in[35] la_data_in[36] la_data_in[37] la_data_in[38] la_data_in[39] la_data_in[3]
+ la_data_in[40] la_data_in[41] la_data_in[42] la_data_in[43] la_data_in[44] la_data_in[45]
+ la_data_in[46] la_data_in[47] la_data_in[48] la_data_in[49] la_data_in[4] la_data_in[50]
+ la_data_in[51] la_data_in[52] la_data_in[53] la_data_in[54] la_data_in[55] la_data_in[56]
+ la_data_in[57] la_data_in[58] la_data_in[59] la_data_in[5] la_data_in[60] la_data_in[61]
+ la_data_in[62] la_data_in[63] la_data_in[6] la_data_in[7] la_data_in[8] la_data_in[9]
+ la_data_out[0] la_data_out[10] la_data_out[11] la_data_out[12] la_data_out[13] la_data_out[14]
+ la_data_out[15] la_data_out[16] la_data_out[17] la_data_out[18] la_data_out[19]
+ la_data_out[1] la_data_out[20] la_data_out[21] la_data_out[22] la_data_out[23] la_data_out[24]
+ la_data_out[25] la_data_out[26] la_data_out[27] la_data_out[28] la_data_out[29]
+ la_data_out[2] la_data_out[30] la_data_out[31] la_data_out[32] la_data_out[33] la_data_out[34]
+ la_data_out[35] la_data_out[36] la_data_out[37] la_data_out[38] la_data_out[39]
+ la_data_out[3] la_data_out[40] la_data_out[41] la_data_out[42] la_data_out[43] la_data_out[44]
+ la_data_out[45] la_data_out[46] la_data_out[47] la_data_out[48] la_data_out[49]
+ la_data_out[4] la_data_out[50] la_data_out[51] la_data_out[52] la_data_out[53] la_data_out[54]
+ la_data_out[55] la_data_out[56] la_data_out[57] la_data_out[58] la_data_out[59]
+ la_data_out[5] la_data_out[60] la_data_out[61] la_data_out[62] la_data_out[63] la_data_out[6]
+ la_data_out[7] la_data_out[8] la_data_out[9] la_oenb[0] la_oenb[10] la_oenb[11]
+ la_oenb[12] la_oenb[13] la_oenb[14] la_oenb[15] la_oenb[16] la_oenb[17] la_oenb[18]
+ la_oenb[19] la_oenb[1] la_oenb[20] la_oenb[21] la_oenb[22] la_oenb[23] la_oenb[24]
+ la_oenb[25] la_oenb[26] la_oenb[27] la_oenb[28] la_oenb[29] la_oenb[2] la_oenb[30]
+ la_oenb[31] la_oenb[32] la_oenb[33] la_oenb[34] la_oenb[35] la_oenb[36] la_oenb[37]
+ la_oenb[38] la_oenb[39] la_oenb[3] la_oenb[40] la_oenb[41] la_oenb[42] la_oenb[43]
+ la_oenb[44] la_oenb[45] la_oenb[46] la_oenb[47] la_oenb[48] la_oenb[49] la_oenb[4]
+ la_oenb[50] la_oenb[51] la_oenb[52] la_oenb[53] la_oenb[54] la_oenb[55] la_oenb[56]
+ la_oenb[57] la_oenb[58] la_oenb[59] la_oenb[5] la_oenb[60] la_oenb[61] la_oenb[62]
+ la_oenb[63] la_oenb[6] la_oenb[7] la_oenb[8] la_oenb[9] vdd vss wb_clk_i wb_rst_i
+ wbs_ack_o wbs_adr_i[0] wbs_adr_i[10] wbs_adr_i[11] wbs_adr_i[12] wbs_adr_i[13] wbs_adr_i[14]
+ wbs_adr_i[15] wbs_adr_i[16] wbs_adr_i[17] wbs_adr_i[18] wbs_adr_i[19] wbs_adr_i[1]
+ wbs_adr_i[20] wbs_adr_i[21] wbs_adr_i[22] wbs_adr_i[23] wbs_adr_i[24] wbs_adr_i[25]
+ wbs_adr_i[26] wbs_adr_i[27] wbs_adr_i[28] wbs_adr_i[29] wbs_adr_i[2] wbs_adr_i[30]
+ wbs_adr_i[31] wbs_adr_i[3] wbs_adr_i[4] wbs_adr_i[5] wbs_adr_i[6] wbs_adr_i[7] wbs_adr_i[8]
+ wbs_adr_i[9] wbs_cyc_i wbs_dat_i[0] wbs_dat_i[10] wbs_dat_i[11] wbs_dat_i[12] wbs_dat_i[13]
+ wbs_dat_i[14] wbs_dat_i[15] wbs_dat_i[16] wbs_dat_i[17] wbs_dat_i[18] wbs_dat_i[19]
+ wbs_dat_i[1] wbs_dat_i[20] wbs_dat_i[21] wbs_dat_i[22] wbs_dat_i[23] wbs_dat_i[24]
+ wbs_dat_i[25] wbs_dat_i[26] wbs_dat_i[27] wbs_dat_i[28] wbs_dat_i[29] wbs_dat_i[2]
+ wbs_dat_i[30] wbs_dat_i[31] wbs_dat_i[3] wbs_dat_i[4] wbs_dat_i[5] wbs_dat_i[6]
+ wbs_dat_i[7] wbs_dat_i[8] wbs_dat_i[9] wbs_dat_o[0] wbs_dat_o[10] wbs_dat_o[11]
+ wbs_dat_o[12] wbs_dat_o[13] wbs_dat_o[14] wbs_dat_o[15] wbs_dat_o[16] wbs_dat_o[17]
+ wbs_dat_o[18] wbs_dat_o[19] wbs_dat_o[1] wbs_dat_o[20] wbs_dat_o[21] wbs_dat_o[22]
+ wbs_dat_o[23] wbs_dat_o[24] wbs_dat_o[25] wbs_dat_o[26] wbs_dat_o[27] wbs_dat_o[28]
+ wbs_dat_o[29] wbs_dat_o[2] wbs_dat_o[30] wbs_dat_o[31] wbs_dat_o[3] wbs_dat_o[4]
+ wbs_dat_o[5] wbs_dat_o[6] wbs_dat_o[7] wbs_dat_o[8] wbs_dat_o[9] wbs_sel_i[0] wbs_sel_i[1]
+ wbs_sel_i[2] wbs_sel_i[3] wbs_stb_i wbs_we_i
XTAP_177 vdd vss gf180mcu_fd_sc_mcu7t5v0__filltie
XTAP_188 vdd vss gf180mcu_fd_sc_mcu7t5v0__filltie
XTAP_199 vdd vss gf180mcu_fd_sc_mcu7t5v0__filltie
XFILLER_1_1490 vdd vss gf180mcu_fd_sc_mcu7t5v0__fill_1
XFILLER_11_1064 vdd vss gf180mcu_fd_sc_mcu7t5v0__fill_1
XFILLER_2_527 vdd vss gf180mcu_fd_sc_mcu7t5v0__fill_2
XFILLER_13_144 vdd vss gf180mcu_fd_sc_mcu7t5v0__fillcap_64
XFILLER_9_137 vdd vss gf180mcu_fd_sc_mcu7t5v0__fillcap_4
XFILLER_6_811 vdd vss gf180mcu_fd_sc_mcu7t5v0__fillcap_4
XFILLER_9_1419 vdd vss gf180mcu_fd_sc_mcu7t5v0__fill_1
XFILLER_5_354 vdd vss gf180mcu_fd_sc_mcu7t5v0__fill_1
XFILLER_3_1007 vdd vss gf180mcu_fd_sc_mcu7t5v0__fill_2
XFILLER_2_1095 vdd vss gf180mcu_fd_sc_mcu7t5v0__fillcap_4
XANTENNA__036__CLK net10 vdd vss gf180mcu_fd_sc_mcu7t5v0__antenna
XFILLER_14_1457 vdd vss gf180mcu_fd_sc_mcu7t5v0__fillcap_64
XFILLER_12_1170 vdd vss gf180mcu_fd_sc_mcu7t5v0__fill_1
XFILLER_16_707 vdd vss gf180mcu_fd_sc_mcu7t5v0__fillcap_16
XFILLER_0_839 vdd vss gf180mcu_fd_sc_mcu7t5v0__fill_1
XFILLER_12_957 vdd vss gf180mcu_fd_sc_mcu7t5v0__fill_1
Xuser_proj_example_206 wbs_dat_o[24] vdd vss gf180mcu_fd_sc_mcu7t5v0__tiel
XFILLER_3_600 vdd vss gf180mcu_fd_sc_mcu7t5v0__fill_2
XFILLER_2_176 vdd vss gf180mcu_fd_sc_mcu7t5v0__fill_1
XFILLER_0_68 vdd vss gf180mcu_fd_sc_mcu7t5v0__fill_2
XFILLER_4_1102 vdd vss gf180mcu_fd_sc_mcu7t5v0__fillcap_64
XFILLER_14_250 vdd vss gf180mcu_fd_sc_mcu7t5v0__fillcap_64
XFILLER_9_66 vdd vss gf180mcu_fd_sc_mcu7t5v0__fillcap_4
XFILLER_13_1490 vdd vss gf180mcu_fd_sc_mcu7t5v0__fill_1
XANTENNA_u_inj.gen_PU\[6\].pup_I net12 vdd vss gf180mcu_fd_sc_mcu7t5v0__antenna
XFILLER_6_460 vdd vss gf180mcu_fd_sc_mcu7t5v0__fill_1
XFILLER_0_1577 vdd vss gf180mcu_fd_sc_mcu7t5v0__fillcap_4
XFILLER_0_614 vdd vss gf180mcu_fd_sc_mcu7t5v0__fill_2
XFILLER_16_537 vdd vss gf180mcu_fd_sc_mcu7t5v0__fillcap_16
XFILLER_9_1580 vdd vss gf180mcu_fd_sc_mcu7t5v0__fill_1
XFILLER_5_1422 vdd vss gf180mcu_fd_sc_mcu7t5v0__fillcap_64
XFILLER_16_559 vdd vss gf180mcu_fd_sc_mcu7t5v0__fill_1
XFILLER_8_747 vdd vss gf180mcu_fd_sc_mcu7t5v0__fillcap_64
XFILLER_11_286 vdd vss gf180mcu_fd_sc_mcu7t5v0__fillcap_64
XFILLER_4_953 vdd vss gf180mcu_fd_sc_mcu7t5v0__fillcap_4
XFILLER_7_279 vdd vss gf180mcu_fd_sc_mcu7t5v0__fillcap_4
XFILLER_3_496 vdd vss gf180mcu_fd_sc_mcu7t5v0__fill_1
XFILLER_15_570 vdd vss gf180mcu_fd_sc_mcu7t5v0__fillcap_64
XFILLER_7_780 vdd vss gf180mcu_fd_sc_mcu7t5v0__fill_1
XFILLER_14_1095 vdd vss gf180mcu_fd_sc_mcu7t5v0__fillcap_4
XFILLER_0_499 vdd vss gf180mcu_fd_sc_mcu7t5v0__fill_1
XFILLER_0_444 vdd vss gf180mcu_fd_sc_mcu7t5v0__fill_2
XFILLER_0_422 vdd vss gf180mcu_fd_sc_mcu7t5v0__fill_1
XFILLER_0_400 vdd vss gf180mcu_fd_sc_mcu7t5v0__fill_2
XFILLER_1_956 vdd vss gf180mcu_fd_sc_mcu7t5v0__fillcap_8
XFILLER_1_1127 vdd vss gf180mcu_fd_sc_mcu7t5v0__fillcap_8
XFILLER_1_1138 vdd vss gf180mcu_fd_sc_mcu7t5v0__fill_1
XFILLER_6_34 vdd vss gf180mcu_fd_sc_mcu7t5v0__fill_1
XTAP_348 vdd vss gf180mcu_fd_sc_mcu7t5v0__filltie
XTAP_337 vdd vss gf180mcu_fd_sc_mcu7t5v0__filltie
XTAP_326 vdd vss gf180mcu_fd_sc_mcu7t5v0__filltie
XTAP_315 vdd vss gf180mcu_fd_sc_mcu7t5v0__filltie
XTAP_304 vdd vss gf180mcu_fd_sc_mcu7t5v0__filltie
XTAP_359 vdd vss gf180mcu_fd_sc_mcu7t5v0__filltie
XFILLER_11_1202 vdd vss gf180mcu_fd_sc_mcu7t5v0__fillcap_4
XFILLER_1_208 vdd vss gf180mcu_fd_sc_mcu7t5v0__fillcap_4
XFILLER_1_219 vdd vss gf180mcu_fd_sc_mcu7t5v0__fill_2
XFILLER_16_1157 vdd vss gf180mcu_fd_sc_mcu7t5v0__fillcap_4
XFILLER_5_503 vdd vss gf180mcu_fd_sc_mcu7t5v0__fill_1
XFILLER_5_558 vdd vss gf180mcu_fd_sc_mcu7t5v0__fillcap_8
XFILLER_5_1060 vdd vss gf180mcu_fd_sc_mcu7t5v0__fillcap_4
XFILLER_16_142 vdd vss gf180mcu_fd_sc_mcu7t5v0__fill_1
XFILLER_12_392 vdd vss gf180mcu_fd_sc_mcu7t5v0__fillcap_64
XFILLER_8_385 vdd vss gf180mcu_fd_sc_mcu7t5v0__fillcap_4
XTAP_101 vdd vss gf180mcu_fd_sc_mcu7t5v0__filltie
XTAP_112 vdd vss gf180mcu_fd_sc_mcu7t5v0__filltie
XTAP_123 vdd vss gf180mcu_fd_sc_mcu7t5v0__filltie
XTAP_134 vdd vss gf180mcu_fd_sc_mcu7t5v0__filltie
XTAP_145 vdd vss gf180mcu_fd_sc_mcu7t5v0__filltie
XTAP_156 vdd vss gf180mcu_fd_sc_mcu7t5v0__filltie
XTAP_167 vdd vss gf180mcu_fd_sc_mcu7t5v0__filltie
XTAP_178 vdd vss gf180mcu_fd_sc_mcu7t5v0__filltie
XTAP_189 vdd vss gf180mcu_fd_sc_mcu7t5v0__filltie
Xu_inj.gen_PD\[3\].pdp_22 net22 vdd vss gf180mcu_fd_sc_mcu7t5v0__tiel
XFILLER_10_318 vdd vss gf180mcu_fd_sc_mcu7t5v0__fill_1
XFILLER_14_602 vdd vss gf180mcu_fd_sc_mcu7t5v0__fill_1
XFILLER_2_1244 vdd vss gf180mcu_fd_sc_mcu7t5v0__fillcap_4
XFILLER_6_889 vdd vss gf180mcu_fd_sc_mcu7t5v0__fillcap_64
XFILLER_3_1019 vdd vss gf180mcu_fd_sc_mcu7t5v0__fillcap_32
XFILLER_3_1564 vdd vss gf180mcu_fd_sc_mcu7t5v0__fillcap_16
XFILLER_13_1138 vdd vss gf180mcu_fd_sc_mcu7t5v0__fillcap_64
XFILLER_11_638 vdd vss gf180mcu_fd_sc_mcu7t5v0__fill_1
XFILLER_6_108 vdd vss gf180mcu_fd_sc_mcu7t5v0__fillcap_64
XFILLER_2_303 vdd vss gf180mcu_fd_sc_mcu7t5v0__fill_2
XFILLER_3_815 vdd vss gf180mcu_fd_sc_mcu7t5v0__fillcap_16
XFILLER_3_859 vdd vss gf180mcu_fd_sc_mcu7t5v0__fill_2
XFILLER_3_848 vdd vss gf180mcu_fd_sc_mcu7t5v0__fillcap_4
XFILLER_15_922 vdd vss gf180mcu_fd_sc_mcu7t5v0__fill_1
XFILLER_5_141 vdd vss gf180mcu_fd_sc_mcu7t5v0__fill_1
XFILLER_9_1206 vdd vss gf180mcu_fd_sc_mcu7t5v0__fill_1
XFILLER_2_881 vdd vss gf180mcu_fd_sc_mcu7t5v0__fillcap_4
XFILLER_0_807 vdd vss gf180mcu_fd_sc_mcu7t5v0__fill_1
Xuser_proj_example_207 wbs_dat_o[25] vdd vss gf180mcu_fd_sc_mcu7t5v0__tiel
XFILLER_7_428 vdd vss gf180mcu_fd_sc_mcu7t5v0__fillcap_64
XFILLER_3_2 vdd vss gf180mcu_fd_sc_mcu7t5v0__fillcap_64
XFILLER_3_689 vdd vss gf180mcu_fd_sc_mcu7t5v0__fillcap_4
XANTENNA_u_inj.gen_TRIM\[2\].ptrimn_I net12 vdd vss gf180mcu_fd_sc_mcu7t5v0__antenna
XFILLER_0_1512 vdd vss gf180mcu_fd_sc_mcu7t5v0__fillcap_8
Xu_inj.psijn_215 net215 vdd vss gf180mcu_fd_sc_mcu7t5v0__tieh
XFILLER_14_1244 vdd vss gf180mcu_fd_sc_mcu7t5v0__fillcap_64
XFILLER_16_527 vdd vss gf180mcu_fd_sc_mcu7t5v0__fillcap_4
XFILLER_12_744 vdd vss gf180mcu_fd_sc_mcu7t5v0__fill_1
XANTENNA_u_inj.gen_TRIM\[1\].ptrimp_I net12 vdd vss gf180mcu_fd_sc_mcu7t5v0__antenna
XFILLER_15_1564 vdd vss gf180mcu_fd_sc_mcu7t5v0__fillcap_8
XFILLER_0_1364 vdd vss gf180mcu_fd_sc_mcu7t5v0__fill_1
XFILLER_0_1386 vdd vss gf180mcu_fd_sc_mcu7t5v0__fill_1
XANTENNA_u_inj.gen_PU\[17\].pun_I net13 vdd vss gf180mcu_fd_sc_mcu7t5v0__antenna
XFILLER_1_913 vdd vss gf180mcu_fd_sc_mcu7t5v0__fillcap_8
XFILLER_0_489 vdd vss gf180mcu_fd_sc_mcu7t5v0__fill_1
XFILLER_16_357 vdd vss gf180mcu_fd_sc_mcu7t5v0__fillcap_8
XFILLER_16_313 vdd vss gf180mcu_fd_sc_mcu7t5v0__fill_2
XFILLER_8_534 vdd vss gf180mcu_fd_sc_mcu7t5v0__fillcap_64
XTAP_349 vdd vss gf180mcu_fd_sc_mcu7t5v0__filltie
XTAP_338 vdd vss gf180mcu_fd_sc_mcu7t5v0__filltie
XTAP_327 vdd vss gf180mcu_fd_sc_mcu7t5v0__filltie
XTAP_316 vdd vss gf180mcu_fd_sc_mcu7t5v0__filltie
XTAP_305 vdd vss gf180mcu_fd_sc_mcu7t5v0__filltie
XFILLER_10_1450 vdd vss gf180mcu_fd_sc_mcu7t5v0__fillcap_4
XFILLER_3_283 vdd vss gf180mcu_fd_sc_mcu7t5v0__fill_1
XFILLER_4_740 vdd vss gf180mcu_fd_sc_mcu7t5v0__fillcap_4
XFILLER_6_1028 vdd vss gf180mcu_fd_sc_mcu7t5v0__fill_1
XFILLER_15_66 vdd vss gf180mcu_fd_sc_mcu7t5v0__fillcap_4
XFILLER_16_1147 vdd vss gf180mcu_fd_sc_mcu7t5v0__fill_2
XFILLER_16_1103 vdd vss gf180mcu_fd_sc_mcu7t5v0__fillcap_4
XFILLER_1_732 vdd vss gf180mcu_fd_sc_mcu7t5v0__fill_2
XFILLER_0_242 vdd vss gf180mcu_fd_sc_mcu7t5v0__fill_2
XFILLER_0_264 vdd vss gf180mcu_fd_sc_mcu7t5v0__fill_2
XFILLER_7_1348 vdd vss gf180mcu_fd_sc_mcu7t5v0__fill_1
XFILLER_0_275 vdd vss gf180mcu_fd_sc_mcu7t5v0__fill_2
XFILLER_16_187 vdd vss gf180mcu_fd_sc_mcu7t5v0__fillcap_8
XFILLER_9_854 vdd vss gf180mcu_fd_sc_mcu7t5v0__fillcap_64
XTAP_102 vdd vss gf180mcu_fd_sc_mcu7t5v0__filltie
XANTENNA_input3_I la_data_in[2] vdd vss gf180mcu_fd_sc_mcu7t5v0__antenna
XTAP_113 vdd vss gf180mcu_fd_sc_mcu7t5v0__filltie
XTAP_124 vdd vss gf180mcu_fd_sc_mcu7t5v0__filltie
XTAP_135 vdd vss gf180mcu_fd_sc_mcu7t5v0__filltie
XTAP_146 vdd vss gf180mcu_fd_sc_mcu7t5v0__filltie
XTAP_157 vdd vss gf180mcu_fd_sc_mcu7t5v0__filltie
XTAP_168 vdd vss gf180mcu_fd_sc_mcu7t5v0__filltie
XTAP_179 vdd vss gf180mcu_fd_sc_mcu7t5v0__filltie
XFILLER_14_669 vdd vss gf180mcu_fd_sc_mcu7t5v0__fillcap_4
XFILLER_10_886 vdd vss gf180mcu_fd_sc_mcu7t5v0__fill_1
XFILLER_1_551 vdd vss gf180mcu_fd_sc_mcu7t5v0__fill_2
XFILLER_8_172 vdd vss gf180mcu_fd_sc_mcu7t5v0__fillcap_4
XFILLER_12_1386 vdd vss gf180mcu_fd_sc_mcu7t5v0__fillcap_64
XFILLER_10_105 vdd vss gf180mcu_fd_sc_mcu7t5v0__fill_1
XFILLER_12_34 vdd vss gf180mcu_fd_sc_mcu7t5v0__fill_1
XFILLER_8_1454 vdd vss gf180mcu_fd_sc_mcu7t5v0__fill_1
XFILLER_2_315 vdd vss gf180mcu_fd_sc_mcu7t5v0__fillcap_4
XFILLER_2_1031 vdd vss gf180mcu_fd_sc_mcu7t5v0__fillcap_8
XFILLER_15_989 vdd vss gf180mcu_fd_sc_mcu7t5v0__fillcap_4
XFILLER_6_676 vdd vss gf180mcu_fd_sc_mcu7t5v0__fillcap_64
Xu_inj.gen_PD\[0\].pdp_16 net16 vdd vss gf180mcu_fd_sc_mcu7t5v0__tiel
XFILLER_9_492 vdd vss gf180mcu_fd_sc_mcu7t5v0__fillcap_4
XFILLER_15_208 vdd vss gf180mcu_fd_sc_mcu7t5v0__fillcap_4
XFILLER_3_1351 vdd vss gf180mcu_fd_sc_mcu7t5v0__fillcap_64
XFILLER_11_425 vdd vss gf180mcu_fd_sc_mcu7t5v0__fill_1
Xuser_proj_example_208 wbs_dat_o[26] vdd vss gf180mcu_fd_sc_mcu7t5v0__tiel
XFILLER_2_101 vdd vss gf180mcu_fd_sc_mcu7t5v0__fillcap_4
XFILLER_3_624 vdd vss gf180mcu_fd_sc_mcu7t5v0__fillcap_8
XFILLER_0_37 vdd vss gf180mcu_fd_sc_mcu7t5v0__fillcap_8
XFILLER_7_996 vdd vss gf180mcu_fd_sc_mcu7t5v0__fillcap_64
XFILLER_0_616 vdd vss gf180mcu_fd_sc_mcu7t5v0__fill_1
XANTENNA_u_inj.gen_PU\[13\].pun_I net13 vdd vss gf180mcu_fd_sc_mcu7t5v0__antenna
XFILLER_16_517 vdd vss gf180mcu_fd_sc_mcu7t5v0__fill_2
XFILLER_7_215 vdd vss gf180mcu_fd_sc_mcu7t5v0__fillcap_64
XFILLER_3_421 vdd vss gf180mcu_fd_sc_mcu7t5v0__fillcap_4
XFILLER_3_476 vdd vss gf180mcu_fd_sc_mcu7t5v0__fillcap_8
XANTENNA_u_inj.gen_TRIM\[3\].ptrimn_EN u_inj.trim_p_r\[3\] vdd vss gf180mcu_fd_sc_mcu7t5v0__antenna
XFILLER_0_1310 vdd vss gf180mcu_fd_sc_mcu7t5v0__fill_2
XFILLER_0_1332 vdd vss gf180mcu_fd_sc_mcu7t5v0__fill_2
XFILLER_0_1376 vdd vss gf180mcu_fd_sc_mcu7t5v0__fillcap_8
XFILLER_16_1329 vdd vss gf180mcu_fd_sc_mcu7t5v0__fill_1
XFILLER_14_1031 vdd vss gf180mcu_fd_sc_mcu7t5v0__fillcap_64
XFILLER_0_446 vdd vss gf180mcu_fd_sc_mcu7t5v0__fill_1
XFILLER_1_925 vdd vss gf180mcu_fd_sc_mcu7t5v0__fill_2
XFILLER_16_303 vdd vss gf180mcu_fd_sc_mcu7t5v0__fillcap_4
XFILLER_0_457 vdd vss gf180mcu_fd_sc_mcu7t5v0__fill_1
XFILLER_16_369 vdd vss gf180mcu_fd_sc_mcu7t5v0__fillcap_16
XFILLER_16_347 vdd vss gf180mcu_fd_sc_mcu7t5v0__fill_2
XFILLER_12_531 vdd vss gf180mcu_fd_sc_mcu7t5v0__fill_1
XTAP_339 vdd vss gf180mcu_fd_sc_mcu7t5v0__filltie
XTAP_328 vdd vss gf180mcu_fd_sc_mcu7t5v0__filltie
XTAP_317 vdd vss gf180mcu_fd_sc_mcu7t5v0__filltie
XTAP_306 vdd vss gf180mcu_fd_sc_mcu7t5v0__filltie
Xu_inj.gen_PD\[4\].pdn_23 net23 vdd vss gf180mcu_fd_sc_mcu7t5v0__tiel
XFILLER_15_1351 vdd vss gf180mcu_fd_sc_mcu7t5v0__fillcap_64
XFILLER_14_818 vdd vss gf180mcu_fd_sc_mcu7t5v0__fillcap_64
XFILLER_1_799 vdd vss gf180mcu_fd_sc_mcu7t5v0__fillcap_4
XFILLER_1_744 vdd vss gf180mcu_fd_sc_mcu7t5v0__fill_2
XFILLER_0_287 vdd vss gf180mcu_fd_sc_mcu7t5v0__fillcap_4
XFILLER_16_133 vdd vss gf180mcu_fd_sc_mcu7t5v0__fillcap_4
XFILLER_16_111 vdd vss gf180mcu_fd_sc_mcu7t5v0__fill_2
XFILLER_16_177 vdd vss gf180mcu_fd_sc_mcu7t5v0__fillcap_4
XFILLER_13_851 vdd vss gf180mcu_fd_sc_mcu7t5v0__fill_1
XFILLER_8_321 vdd vss gf180mcu_fd_sc_mcu7t5v0__fillcap_64
XTAP_103 vdd vss gf180mcu_fd_sc_mcu7t5v0__filltie
XTAP_114 vdd vss gf180mcu_fd_sc_mcu7t5v0__filltie
XFILLER_4_582 vdd vss gf180mcu_fd_sc_mcu7t5v0__fill_2
XFILLER_11_2 vdd vss gf180mcu_fd_sc_mcu7t5v0__fillcap_64
XANTENNA__039__CLK net10 vdd vss gf180mcu_fd_sc_mcu7t5v0__antenna
Xu_inj.gen_TRIM\[0\].ntrimn u_inj.trim_n_r\[0\] net31 u_inj.outn vdd vss gf180mcu_fd_sc_mcu7t5v0__invz_1
XTAP_125 vdd vss gf180mcu_fd_sc_mcu7t5v0__filltie
XTAP_136 vdd vss gf180mcu_fd_sc_mcu7t5v0__filltie
XTAP_147 vdd vss gf180mcu_fd_sc_mcu7t5v0__filltie
XTAP_158 vdd vss gf180mcu_fd_sc_mcu7t5v0__filltie
XTAP_169 vdd vss gf180mcu_fd_sc_mcu7t5v0__filltie
XFILLER_1_1493 vdd vss gf180mcu_fd_sc_mcu7t5v0__fillcap_64
XFILLER_11_1067 vdd vss gf180mcu_fd_sc_mcu7t5v0__fillcap_64
XFILLER_2_519 vdd vss gf180mcu_fd_sc_mcu7t5v0__fill_2
XFILLER_5_357 vdd vss gf180mcu_fd_sc_mcu7t5v0__fillcap_64
XFILLER_1_541 vdd vss gf180mcu_fd_sc_mcu7t5v0__fill_2
XFILLER_7_1135 vdd vss gf180mcu_fd_sc_mcu7t5v0__fill_1
XFILLER_9_641 vdd vss gf180mcu_fd_sc_mcu7t5v0__fillcap_64
XFILLER_3_839 vdd vss gf180mcu_fd_sc_mcu7t5v0__fillcap_4
XFILLER_4_1308 vdd vss gf180mcu_fd_sc_mcu7t5v0__fillcap_4
XFILLER_14_456 vdd vss gf180mcu_fd_sc_mcu7t5v0__fillcap_4
XFILLER_2_1043 vdd vss gf180mcu_fd_sc_mcu7t5v0__fill_1
XFILLER_2_1065 vdd vss gf180mcu_fd_sc_mcu7t5v0__fill_2
XFILLER_2_1087 vdd vss gf180mcu_fd_sc_mcu7t5v0__fillcap_8
XFILLER_10_673 vdd vss gf180mcu_fd_sc_mcu7t5v0__fill_1
XFILLER_2_861 vdd vss gf180mcu_fd_sc_mcu7t5v0__fill_2
XFILLER_12_1173 vdd vss gf180mcu_fd_sc_mcu7t5v0__fillcap_64
XANTENNA__034__D net3 vdd vss gf180mcu_fd_sc_mcu7t5v0__antenna
Xuser_proj_example_209 wbs_dat_o[27] vdd vss gf180mcu_fd_sc_mcu7t5v0__tiel
XFILLER_2_179 vdd vss gf180mcu_fd_sc_mcu7t5v0__fillcap_64
XFILLER_3_636 vdd vss gf180mcu_fd_sc_mcu7t5v0__fill_2
XFILLER_8_1241 vdd vss gf180mcu_fd_sc_mcu7t5v0__fill_1
XFILLER_0_49 vdd vss gf180mcu_fd_sc_mcu7t5v0__fill_2
XANTENNA_u_inj.gen_TRIM\[2\].ptrimn_EN u_inj.trim_p_r\[2\] vdd vss gf180mcu_fd_sc_mcu7t5v0__antenna
XFILLER_15_776 vdd vss gf180mcu_fd_sc_mcu7t5v0__fillcap_4
XFILLER_13_1493 vdd vss gf180mcu_fd_sc_mcu7t5v0__fillcap_64
XFILLER_11_993 vdd vss gf180mcu_fd_sc_mcu7t5v0__fill_1
XFILLER_6_463 vdd vss gf180mcu_fd_sc_mcu7t5v0__fillcap_64
XFILLER_0_1536 vdd vss gf180mcu_fd_sc_mcu7t5v0__fillcap_4
XFILLER_0_1547 vdd vss gf180mcu_fd_sc_mcu7t5v0__fill_2
XFILLER_0_1569 vdd vss gf180mcu_fd_sc_mcu7t5v0__fillcap_4
XFILLER_9_1561 vdd vss gf180mcu_fd_sc_mcu7t5v0__fill_1
XFILLER_11_212 vdd vss gf180mcu_fd_sc_mcu7t5v0__fill_1
XFILLER_3_488 vdd vss gf180mcu_fd_sc_mcu7t5v0__fill_2
XFILLER_3_499 vdd vss gf180mcu_fd_sc_mcu7t5v0__fill_2
XFILLER_11_1419 vdd vss gf180mcu_fd_sc_mcu7t5v0__fill_1
XANTENNA_u_inj.gen_PU\[6\].pun_I net13 vdd vss gf180mcu_fd_sc_mcu7t5v0__antenna
XFILLER_7_783 vdd vss gf180mcu_fd_sc_mcu7t5v0__fillcap_64
XFILLER_1_70 vdd vss gf180mcu_fd_sc_mcu7t5v0__fill_1
XFILLER_1_81 vdd vss gf180mcu_fd_sc_mcu7t5v0__fill_1
XFILLER_0_1399 vdd vss gf180mcu_fd_sc_mcu7t5v0__fill_1
XFILLER_5_709 vdd vss gf180mcu_fd_sc_mcu7t5v0__fill_1
XFILLER_0_436 vdd vss gf180mcu_fd_sc_mcu7t5v0__fillcap_8
XFILLER_0_414 vdd vss gf180mcu_fd_sc_mcu7t5v0__fillcap_4
XFILLER_1_948 vdd vss gf180mcu_fd_sc_mcu7t5v0__fillcap_4
XFILLER_5_1277 vdd vss gf180mcu_fd_sc_mcu7t5v0__fill_1
XFILLER_12_598 vdd vss gf180mcu_fd_sc_mcu7t5v0__fillcap_4
XFILLER_6_37 vdd vss gf180mcu_fd_sc_mcu7t5v0__fillcap_64
XTAP_329 vdd vss gf180mcu_fd_sc_mcu7t5v0__filltie
XTAP_318 vdd vss gf180mcu_fd_sc_mcu7t5v0__filltie
XTAP_307 vdd vss gf180mcu_fd_sc_mcu7t5v0__filltie
XFILLER_16_893 vdd vss gf180mcu_fd_sc_mcu7t5v0__fillcap_4
XFILLER_16_1127 vdd vss gf180mcu_fd_sc_mcu7t5v0__fillcap_16
XFILLER_1_712 vdd vss gf180mcu_fd_sc_mcu7t5v0__fillcap_16
XFILLER_0_244 vdd vss gf180mcu_fd_sc_mcu7t5v0__fill_1
XFILLER_0_266 vdd vss gf180mcu_fd_sc_mcu7t5v0__fill_1
XFILLER_12_1525 vdd vss gf180mcu_fd_sc_mcu7t5v0__fill_1
XTAP_104 vdd vss gf180mcu_fd_sc_mcu7t5v0__filltie
XTAP_115 vdd vss gf180mcu_fd_sc_mcu7t5v0__filltie
XTAP_126 vdd vss gf180mcu_fd_sc_mcu7t5v0__filltie
XTAP_137 vdd vss gf180mcu_fd_sc_mcu7t5v0__filltie
XTAP_148 vdd vss gf180mcu_fd_sc_mcu7t5v0__filltie
XFILLER_4_550 vdd vss gf180mcu_fd_sc_mcu7t5v0__fillcap_4
XFILLER_4_594 vdd vss gf180mcu_fd_sc_mcu7t5v0__fill_2
XTAP_159 vdd vss gf180mcu_fd_sc_mcu7t5v0__filltie
XANTENNA__037__D net6 vdd vss gf180mcu_fd_sc_mcu7t5v0__antenna
XFILLER_14_605 vdd vss gf180mcu_fd_sc_mcu7t5v0__fillcap_64
XFILLER_6_1383 vdd vss gf180mcu_fd_sc_mcu7t5v0__fill_1
XFILLER_13_137 vdd vss gf180mcu_fd_sc_mcu7t5v0__fillcap_4
XFILLER_10_811 vdd vss gf180mcu_fd_sc_mcu7t5v0__fillcap_4
XFILLER_6_815 vdd vss gf180mcu_fd_sc_mcu7t5v0__fill_1
XFILLER_11_1580 vdd vss gf180mcu_fd_sc_mcu7t5v0__fill_1
Xu_inj.gen_PD\[1\].pdn_17 net17 vdd vss gf180mcu_fd_sc_mcu7t5v0__tiel
XFILLER_1_575 vdd vss gf180mcu_fd_sc_mcu7t5v0__fill_2
XFILLER_16_1480 vdd vss gf180mcu_fd_sc_mcu7t5v0__fillcap_4
XFILLER_1_1280 vdd vss gf180mcu_fd_sc_mcu7t5v0__fillcap_32
XFILLER_2_1011 vdd vss gf180mcu_fd_sc_mcu7t5v0__fill_2
XFILLER_15_925 vdd vss gf180mcu_fd_sc_mcu7t5v0__fillcap_64
XFILLER_2_1099 vdd vss gf180mcu_fd_sc_mcu7t5v0__fill_1
XFILLER_5_144 vdd vss gf180mcu_fd_sc_mcu7t5v0__fillcap_64
XFILLER_9_1209 vdd vss gf180mcu_fd_sc_mcu7t5v0__fillcap_64
XFILLER_2_873 vdd vss gf180mcu_fd_sc_mcu7t5v0__fillcap_8
XFILLER_3_604 vdd vss gf180mcu_fd_sc_mcu7t5v0__fill_2
XFILLER_14_243 vdd vss gf180mcu_fd_sc_mcu7t5v0__fillcap_4
XFILLER_10_460 vdd vss gf180mcu_fd_sc_mcu7t5v0__fill_1
XFILLER_0_1504 vdd vss gf180mcu_fd_sc_mcu7t5v0__fill_1
XFILLER_0_1526 vdd vss gf180mcu_fd_sc_mcu7t5v0__fillcap_4
XANTENNA_u_inj.gen_PU\[2\].pun_I net13 vdd vss gf180mcu_fd_sc_mcu7t5v0__antenna
XFILLER_0_629 vdd vss gf180mcu_fd_sc_mcu7t5v0__fill_1
XFILLER_5_1415 vdd vss gf180mcu_fd_sc_mcu7t5v0__fillcap_4
XFILLER_12_747 vdd vss gf180mcu_fd_sc_mcu7t5v0__fillcap_64
XFILLER_11_279 vdd vss gf180mcu_fd_sc_mcu7t5v0__fillcap_4
XFILLER_4_957 vdd vss gf180mcu_fd_sc_mcu7t5v0__fill_1
XFILLER_1_2 vdd vss gf180mcu_fd_sc_mcu7t5v0__fillcap_64
XFILLER_15_563 vdd vss gf180mcu_fd_sc_mcu7t5v0__fillcap_4
XFILLER_11_780 vdd vss gf180mcu_fd_sc_mcu7t5v0__fill_1
XFILLER_13_1280 vdd vss gf180mcu_fd_sc_mcu7t5v0__fillcap_64
XFILLER_6_250 vdd vss gf180mcu_fd_sc_mcu7t5v0__fillcap_64
XFILLER_0_1334 vdd vss gf180mcu_fd_sc_mcu7t5v0__fill_1
XFILLER_0_1367 vdd vss gf180mcu_fd_sc_mcu7t5v0__fillcap_4
XFILLER_14_1099 vdd vss gf180mcu_fd_sc_mcu7t5v0__fill_1
XFILLER_16_349 vdd vss gf180mcu_fd_sc_mcu7t5v0__fill_1
XFILLER_16_327 vdd vss gf180mcu_fd_sc_mcu7t5v0__fillcap_16
XANTENNA_u_inj.gen_TRIM\[1\].ptrimn_I net12 vdd vss gf180mcu_fd_sc_mcu7t5v0__antenna
XTAP_319 vdd vss gf180mcu_fd_sc_mcu7t5v0__filltie
XTAP_308 vdd vss gf180mcu_fd_sc_mcu7t5v0__filltie
XFILLER_3_286 vdd vss gf180mcu_fd_sc_mcu7t5v0__fillcap_64
XFILLER_0_982 vdd vss gf180mcu_fd_sc_mcu7t5v0__fill_1
XFILLER_16_850 vdd vss gf180mcu_fd_sc_mcu7t5v0__fillcap_4
XFILLER_11_1206 vdd vss gf180mcu_fd_sc_mcu7t5v0__fill_1
XFILLER_7_570 vdd vss gf180mcu_fd_sc_mcu7t5v0__fillcap_64
XFILLER_6_1521 vdd vss gf180mcu_fd_sc_mcu7t5v0__fillcap_4
XANTENNA_u_inj.gen_TRIM\[0\].ptrimp_I net12 vdd vss gf180mcu_fd_sc_mcu7t5v0__antenna
XFILLER_6_1576 vdd vss gf180mcu_fd_sc_mcu7t5v0__fillcap_4
XFILLER_0_1175 vdd vss gf180mcu_fd_sc_mcu7t5v0__fill_2
XFILLER_0_1197 vdd vss gf180mcu_fd_sc_mcu7t5v0__fillcap_8
XFILLER_1_702 vdd vss gf180mcu_fd_sc_mcu7t5v0__fillcap_8
XFILLER_0_212 vdd vss gf180mcu_fd_sc_mcu7t5v0__fill_1
XFILLER_1_779 vdd vss gf180mcu_fd_sc_mcu7t5v0__fill_2
XFILLER_0_256 vdd vss gf180mcu_fd_sc_mcu7t5v0__fillcap_8
XFILLER_5_1064 vdd vss gf180mcu_fd_sc_mcu7t5v0__fill_1
XFILLER_12_385 vdd vss gf180mcu_fd_sc_mcu7t5v0__fillcap_4
XFILLER_8_389 vdd vss gf180mcu_fd_sc_mcu7t5v0__fill_1
Xu_inj.gen_TRIM\[0\].ntrimp u_inj.trim_n_r\[0\] net32 u_inj.outp vdd vss gf180mcu_fd_sc_mcu7t5v0__invz_1
XTAP_105 vdd vss gf180mcu_fd_sc_mcu7t5v0__filltie
XTAP_116 vdd vss gf180mcu_fd_sc_mcu7t5v0__filltie
XTAP_127 vdd vss gf180mcu_fd_sc_mcu7t5v0__filltie
XTAP_138 vdd vss gf180mcu_fd_sc_mcu7t5v0__filltie
XTAP_149 vdd vss gf180mcu_fd_sc_mcu7t5v0__filltie
XFILLER_4_562 vdd vss gf180mcu_fd_sc_mcu7t5v0__fill_2
XFILLER_16_691 vdd vss gf180mcu_fd_sc_mcu7t5v0__fillcap_8
Xuser_proj_example_190 wbs_dat_o[8] vdd vss gf180mcu_fd_sc_mcu7t5v0__tiel
XFILLER_7_70 vdd vss gf180mcu_fd_sc_mcu7t5v0__fill_1
XFILLER_2_1237 vdd vss gf180mcu_fd_sc_mcu7t5v0__fillcap_4
XFILLER_2_1248 vdd vss gf180mcu_fd_sc_mcu7t5v0__fill_1
XFILLER_10_889 vdd vss gf180mcu_fd_sc_mcu7t5v0__fillcap_64
XFILLER_12_1312 vdd vss gf180mcu_fd_sc_mcu7t5v0__fill_1
XFILLER_4_392 vdd vss gf180mcu_fd_sc_mcu7t5v0__fillcap_64
XANTENNA_input1_I la_data_in[0] vdd vss gf180mcu_fd_sc_mcu7t5v0__antenna
XFILLER_3_1557 vdd vss gf180mcu_fd_sc_mcu7t5v0__fillcap_4
XFILLER_12_37 vdd vss gf180mcu_fd_sc_mcu7t5v0__fillcap_64
XFILLER_10_108 vdd vss gf180mcu_fd_sc_mcu7t5v0__fillcap_64
XFILLER_2_307 vdd vss gf180mcu_fd_sc_mcu7t5v0__fillcap_8
XFILLER_8_1457 vdd vss gf180mcu_fd_sc_mcu7t5v0__fillcap_64
XFILLER_2_1023 vdd vss gf180mcu_fd_sc_mcu7t5v0__fillcap_4
XFILLER_6_1170 vdd vss gf180mcu_fd_sc_mcu7t5v0__fill_1
XFILLER_6_602 vdd vss gf180mcu_fd_sc_mcu7t5v0__fill_1
XFILLER_1_351 vdd vss gf180mcu_fd_sc_mcu7t5v0__fillcap_4
XFILLER_2_885 vdd vss gf180mcu_fd_sc_mcu7t5v0__fill_2
XFILLER_7_1490 vdd vss gf180mcu_fd_sc_mcu7t5v0__fill_1
XFILLER_11_428 vdd vss gf180mcu_fd_sc_mcu7t5v0__fillcap_64
XFILLER_3_638 vdd vss gf180mcu_fd_sc_mcu7t5v0__fill_1
XFILLER_15_712 vdd vss gf180mcu_fd_sc_mcu7t5v0__fillcap_64
XFILLER_7_922 vdd vss gf180mcu_fd_sc_mcu7t5v0__fill_1
XFILLER_14_1237 vdd vss gf180mcu_fd_sc_mcu7t5v0__fillcap_4
XFILLER_0_608 vdd vss gf180mcu_fd_sc_mcu7t5v0__fill_2
X_040_ net9 net10 u_inj.trim_n_r\[3\] vdd vss gf180mcu_fd_sc_mcu7t5v0__dffq_1
XFILLER_8_1095 vdd vss gf180mcu_fd_sc_mcu7t5v0__fillcap_4
XFILLER_15_1557 vdd vss gf180mcu_fd_sc_mcu7t5v0__fillcap_4