*SPEF "ieee 1481-1999"
*DESIGN "caparray_s1"
*DATE "11:11:11 Fri 11 11, 1111"
*VENDOR "OpenRCX"
*PROGRAM "Parallel Extraction"
*VERSION "1.0"
*DESIGN_FLOW "NAME_SCOPE LOCAL" "PIN_CAP NONE"
*DIVIDER /
*DELIMITER :
*BUS_DELIMITER []
*T_UNIT 1 NS
*C_UNIT 1 PF
*R_UNIT 1 OHM
*L_UNIT 1 HENRY

*NAME_MAP
*1 cap_series_gygyn
*2 cap_series_gygyp
*3 cap_series_gyn
*4 cap_series_gyp
*5 cap_shunt_gyn
*6 cap_shunt_gyp
*7 cap_shunt_n
*8 cap_shunt_p
*9 tune_series_gy[0]
*10 tune_series_gy[1]
*11 tune_series_gy[2]
*12 tune_series_gy[3]
*13 tune_series_gy[4]
*14 tune_series_gy[5]
*15 tune_series_gygy[0]
*16 tune_series_gygy[1]
*17 tune_series_gygy[2]
*18 tune_series_gygy[3]
*19 tune_series_gygy[4]
*20 tune_series_gygy[5]
*21 tune_shunt[0]
*22 tune_shunt[1]
*23 tune_shunt[2]
*24 tune_shunt[3]
*25 tune_shunt[4]
*26 tune_shunt[5]
*27 tune_shunt[6]
*28 tune_shunt[7]
*29 tune_shunt_gy[0]
*30 tune_shunt_gy[1]
*31 tune_shunt_gy[2]
*32 tune_shunt_gy[3]
*33 tune_shunt_gy[4]
*34 tune_shunt_gy[5]
*35 tune_shunt_gy[6]
*38 gen_series_gy_g11\[0\]\.d1
*39 gen_series_gy_g11\[0\]\.d2
*40 gen_series_gy_g11\[10\]\.d1
*41 gen_series_gy_g11\[10\]\.d2
*42 gen_series_gy_g11\[11\]\.d1
*43 gen_series_gy_g11\[11\]\.d2
*44 gen_series_gy_g11\[12\]\.d1
*45 gen_series_gy_g11\[12\]\.d2
*46 gen_series_gy_g11\[13\]\.d1
*47 gen_series_gy_g11\[13\]\.d2
*48 gen_series_gy_g11\[14\]\.d1
*49 gen_series_gy_g11\[14\]\.d2
*50 gen_series_gy_g11\[15\]\.d1
*51 gen_series_gy_g11\[15\]\.d2
*52 gen_series_gy_g11\[1\]\.d1
*53 gen_series_gy_g11\[1\]\.d2
*54 gen_series_gy_g11\[2\]\.d1
*55 gen_series_gy_g11\[2\]\.d2
*56 gen_series_gy_g11\[3\]\.d1
*57 gen_series_gy_g11\[3\]\.d2
*58 gen_series_gy_g11\[4\]\.d1
*59 gen_series_gy_g11\[4\]\.d2
*60 gen_series_gy_g11\[5\]\.d1
*61 gen_series_gy_g11\[5\]\.d2
*62 gen_series_gy_g11\[6\]\.d1
*63 gen_series_gy_g11\[6\]\.d2
*64 gen_series_gy_g11\[7\]\.d1
*65 gen_series_gy_g11\[7\]\.d2
*66 gen_series_gy_g11\[8\]\.d1
*67 gen_series_gy_g11\[8\]\.d2
*68 gen_series_gy_g11\[9\]\.d1
*69 gen_series_gy_g11\[9\]\.d2
*70 gen_series_gy_g1\[0\]\.d1
*71 gen_series_gy_g1\[0\]\.d2
*72 gen_series_gy_g1\[10\]\.d1
*73 gen_series_gy_g1\[10\]\.d2
*74 gen_series_gy_g1\[11\]\.d1
*75 gen_series_gy_g1\[11\]\.d2
*76 gen_series_gy_g1\[12\]\.d1
*77 gen_series_gy_g1\[12\]\.d2
*78 gen_series_gy_g1\[13\]\.d1
*79 gen_series_gy_g1\[13\]\.d2
*80 gen_series_gy_g1\[14\]\.d1
*81 gen_series_gy_g1\[14\]\.d2
*82 gen_series_gy_g1\[15\]\.d1
*83 gen_series_gy_g1\[15\]\.d2
*84 gen_series_gy_g1\[16\]\.d1
*85 gen_series_gy_g1\[16\]\.d2
*86 gen_series_gy_g1\[17\]\.d1
*87 gen_series_gy_g1\[17\]\.d2
*88 gen_series_gy_g1\[18\]\.d1
*89 gen_series_gy_g1\[18\]\.d2
*90 gen_series_gy_g1\[19\]\.d1
*91 gen_series_gy_g1\[19\]\.d2
*92 gen_series_gy_g1\[1\]\.d1
*93 gen_series_gy_g1\[1\]\.d2
*94 gen_series_gy_g1\[20\]\.d1
*95 gen_series_gy_g1\[20\]\.d2
*96 gen_series_gy_g1\[21\]\.d1
*97 gen_series_gy_g1\[21\]\.d2
*98 gen_series_gy_g1\[22\]\.d1
*99 gen_series_gy_g1\[22\]\.d2
*100 gen_series_gy_g1\[23\]\.d1
*101 gen_series_gy_g1\[23\]\.d2
*102 gen_series_gy_g1\[24\]\.d1
*103 gen_series_gy_g1\[24\]\.d2
*104 gen_series_gy_g1\[25\]\.d1
*105 gen_series_gy_g1\[25\]\.d2
*106 gen_series_gy_g1\[26\]\.d1
*107 gen_series_gy_g1\[26\]\.d2
*108 gen_series_gy_g1\[27\]\.d1
*109 gen_series_gy_g1\[27\]\.d2
*110 gen_series_gy_g1\[28\]\.d1
*111 gen_series_gy_g1\[28\]\.d2
*112 gen_series_gy_g1\[29\]\.d1
*113 gen_series_gy_g1\[29\]\.d2
*114 gen_series_gy_g1\[2\]\.d1
*115 gen_series_gy_g1\[2\]\.d2
*116 gen_series_gy_g1\[30\]\.d1
*117 gen_series_gy_g1\[30\]\.d2
*118 gen_series_gy_g1\[31\]\.d1
*119 gen_series_gy_g1\[31\]\.d2
*120 gen_series_gy_g1\[3\]\.d1
*121 gen_series_gy_g1\[3\]\.d2
*122 gen_series_gy_g1\[4\]\.d1
*123 gen_series_gy_g1\[4\]\.d2
*124 gen_series_gy_g1\[5\]\.d1
*125 gen_series_gy_g1\[5\]\.d2
*126 gen_series_gy_g1\[6\]\.d1
*127 gen_series_gy_g1\[6\]\.d2
*128 gen_series_gy_g1\[7\]\.d1
*129 gen_series_gy_g1\[7\]\.d2
*130 gen_series_gy_g1\[8\]\.d1
*131 gen_series_gy_g1\[8\]\.d2
*132 gen_series_gy_g1\[9\]\.d1
*133 gen_series_gy_g1\[9\]\.d2
*134 gen_series_gy_g2\[0\]\.d1
*135 gen_series_gy_g2\[0\]\.d2
*136 gen_series_gy_g2\[1\]\.d1
*137 gen_series_gy_g2\[1\]\.d2
*138 gen_series_gy_g2\[2\]\.d1
*139 gen_series_gy_g2\[2\]\.d2
*140 gen_series_gy_g2\[3\]\.d1
*141 gen_series_gy_g2\[3\]\.d2
*142 gen_series_gy_g2\[4\]\.d1
*143 gen_series_gy_g2\[4\]\.d2
*144 gen_series_gy_g2\[5\]\.d1
*145 gen_series_gy_g2\[5\]\.d2
*146 gen_series_gy_g2\[6\]\.d1
*147 gen_series_gy_g2\[6\]\.d2
*148 gen_series_gy_g2\[7\]\.d1
*149 gen_series_gy_g2\[7\]\.d2
*150 gen_series_gy_g3\[0\]\.d1
*151 gen_series_gy_g3\[0\]\.d2
*152 gen_series_gy_g3\[1\]\.d1
*153 gen_series_gy_g3\[1\]\.d2
*154 gen_series_gy_g3\[2\]\.d1
*155 gen_series_gy_g3\[2\]\.d2
*156 gen_series_gy_g3\[3\]\.d1
*157 gen_series_gy_g3\[3\]\.d2
*158 gen_series_gy_g4\[0\]\.d1
*159 gen_series_gy_g4\[0\]\.d2
*160 gen_series_gy_g4\[1\]\.d1
*161 gen_series_gy_g4\[1\]\.d2
*162 gen_series_gy_g5\[0\]\.d1
*163 gen_series_gy_g5\[0\]\.d2
*164 gen_shunt_g1\[0\]\.d1
*165 gen_shunt_g1\[0\]\.d2
*166 gen_shunt_g1\[100\]\.d1
*167 gen_shunt_g1\[100\]\.d2
*168 gen_shunt_g1\[101\]\.d1
*169 gen_shunt_g1\[101\]\.d2
*170 gen_shunt_g1\[102\]\.d1
*171 gen_shunt_g1\[102\]\.d2
*172 gen_shunt_g1\[103\]\.d1
*173 gen_shunt_g1\[103\]\.d2
*174 gen_shunt_g1\[104\]\.d1
*175 gen_shunt_g1\[104\]\.d2
*176 gen_shunt_g1\[105\]\.d1
*177 gen_shunt_g1\[105\]\.d2
*178 gen_shunt_g1\[106\]\.d1
*179 gen_shunt_g1\[106\]\.d2
*180 gen_shunt_g1\[107\]\.d1
*181 gen_shunt_g1\[107\]\.d2
*182 gen_shunt_g1\[108\]\.d1
*183 gen_shunt_g1\[108\]\.d2
*184 gen_shunt_g1\[109\]\.d1
*185 gen_shunt_g1\[109\]\.d2
*186 gen_shunt_g1\[10\]\.d1
*187 gen_shunt_g1\[10\]\.d2
*188 gen_shunt_g1\[110\]\.d1
*189 gen_shunt_g1\[110\]\.d2
*190 gen_shunt_g1\[111\]\.d1
*191 gen_shunt_g1\[111\]\.d2
*192 gen_shunt_g1\[112\]\.d1
*193 gen_shunt_g1\[112\]\.d2
*194 gen_shunt_g1\[113\]\.d1
*195 gen_shunt_g1\[113\]\.d2
*196 gen_shunt_g1\[114\]\.d1
*197 gen_shunt_g1\[114\]\.d2
*198 gen_shunt_g1\[115\]\.d1
*199 gen_shunt_g1\[115\]\.d2
*200 gen_shunt_g1\[116\]\.d1
*201 gen_shunt_g1\[116\]\.d2
*202 gen_shunt_g1\[117\]\.d1
*203 gen_shunt_g1\[117\]\.d2
*204 gen_shunt_g1\[118\]\.d1
*205 gen_shunt_g1\[118\]\.d2
*206 gen_shunt_g1\[119\]\.d1
*207 gen_shunt_g1\[119\]\.d2
*208 gen_shunt_g1\[11\]\.d1
*209 gen_shunt_g1\[11\]\.d2
*210 gen_shunt_g1\[120\]\.d1
*211 gen_shunt_g1\[120\]\.d2
*212 gen_shunt_g1\[121\]\.d1
*213 gen_shunt_g1\[121\]\.d2
*214 gen_shunt_g1\[122\]\.d1
*215 gen_shunt_g1\[122\]\.d2
*216 gen_shunt_g1\[123\]\.d1
*217 gen_shunt_g1\[123\]\.d2
*218 gen_shunt_g1\[124\]\.d1
*219 gen_shunt_g1\[124\]\.d2
*220 gen_shunt_g1\[125\]\.d1
*221 gen_shunt_g1\[125\]\.d2
*222 gen_shunt_g1\[126\]\.d1
*223 gen_shunt_g1\[126\]\.d2
*224 gen_shunt_g1\[127\]\.d1
*225 gen_shunt_g1\[127\]\.d2
*226 gen_shunt_g1\[12\]\.d1
*227 gen_shunt_g1\[12\]\.d2
*228 gen_shunt_g1\[13\]\.d1
*229 gen_shunt_g1\[13\]\.d2
*230 gen_shunt_g1\[14\]\.d1
*231 gen_shunt_g1\[14\]\.d2
*232 gen_shunt_g1\[15\]\.d1
*233 gen_shunt_g1\[15\]\.d2
*234 gen_shunt_g1\[16\]\.d1
*235 gen_shunt_g1\[16\]\.d2
*236 gen_shunt_g1\[17\]\.d1
*237 gen_shunt_g1\[17\]\.d2
*238 gen_shunt_g1\[18\]\.d1
*239 gen_shunt_g1\[18\]\.d2
*240 gen_shunt_g1\[19\]\.d1
*241 gen_shunt_g1\[19\]\.d2
*242 gen_shunt_g1\[1\]\.d1
*243 gen_shunt_g1\[1\]\.d2
*244 gen_shunt_g1\[20\]\.d1
*245 gen_shunt_g1\[20\]\.d2
*246 gen_shunt_g1\[21\]\.d1
*247 gen_shunt_g1\[21\]\.d2
*248 gen_shunt_g1\[22\]\.d1
*249 gen_shunt_g1\[22\]\.d2
*250 gen_shunt_g1\[23\]\.d1
*251 gen_shunt_g1\[23\]\.d2
*252 gen_shunt_g1\[24\]\.d1
*253 gen_shunt_g1\[24\]\.d2
*254 gen_shunt_g1\[25\]\.d1
*255 gen_shunt_g1\[25\]\.d2
*256 gen_shunt_g1\[26\]\.d1
*257 gen_shunt_g1\[26\]\.d2
*258 gen_shunt_g1\[27\]\.d1
*259 gen_shunt_g1\[27\]\.d2
*260 gen_shunt_g1\[28\]\.d1
*261 gen_shunt_g1\[28\]\.d2
*262 gen_shunt_g1\[29\]\.d1
*263 gen_shunt_g1\[29\]\.d2
*264 gen_shunt_g1\[2\]\.d1
*265 gen_shunt_g1\[2\]\.d2
*266 gen_shunt_g1\[30\]\.d1
*267 gen_shunt_g1\[30\]\.d2
*268 gen_shunt_g1\[31\]\.d1
*269 gen_shunt_g1\[31\]\.d2
*270 gen_shunt_g1\[32\]\.d1
*271 gen_shunt_g1\[32\]\.d2
*272 gen_shunt_g1\[33\]\.d1
*273 gen_shunt_g1\[33\]\.d2
*274 gen_shunt_g1\[34\]\.d1
*275 gen_shunt_g1\[34\]\.d2
*276 gen_shunt_g1\[35\]\.d1
*277 gen_shunt_g1\[35\]\.d2
*278 gen_shunt_g1\[36\]\.d1
*279 gen_shunt_g1\[36\]\.d2
*280 gen_shunt_g1\[37\]\.d1
*281 gen_shunt_g1\[37\]\.d2
*282 gen_shunt_g1\[38\]\.d1
*283 gen_shunt_g1\[38\]\.d2
*284 gen_shunt_g1\[39\]\.d1
*285 gen_shunt_g1\[39\]\.d2
*286 gen_shunt_g1\[3\]\.d1
*287 gen_shunt_g1\[3\]\.d2
*288 gen_shunt_g1\[40\]\.d1
*289 gen_shunt_g1\[40\]\.d2
*290 gen_shunt_g1\[41\]\.d1
*291 gen_shunt_g1\[41\]\.d2
*292 gen_shunt_g1\[42\]\.d1
*293 gen_shunt_g1\[42\]\.d2
*294 gen_shunt_g1\[43\]\.d1
*295 gen_shunt_g1\[43\]\.d2
*296 gen_shunt_g1\[44\]\.d1
*297 gen_shunt_g1\[44\]\.d2
*298 gen_shunt_g1\[45\]\.d1
*299 gen_shunt_g1\[45\]\.d2
*300 gen_shunt_g1\[46\]\.d1
*301 gen_shunt_g1\[46\]\.d2
*302 gen_shunt_g1\[47\]\.d1
*303 gen_shunt_g1\[47\]\.d2
*304 gen_shunt_g1\[48\]\.d1
*305 gen_shunt_g1\[48\]\.d2
*306 gen_shunt_g1\[49\]\.d1
*307 gen_shunt_g1\[49\]\.d2
*308 gen_shunt_g1\[4\]\.d1
*309 gen_shunt_g1\[4\]\.d2
*310 gen_shunt_g1\[50\]\.d1
*311 gen_shunt_g1\[50\]\.d2
*312 gen_shunt_g1\[51\]\.d1
*313 gen_shunt_g1\[51\]\.d2
*314 gen_shunt_g1\[52\]\.d1
*315 gen_shunt_g1\[52\]\.d2
*316 gen_shunt_g1\[53\]\.d1
*317 gen_shunt_g1\[53\]\.d2
*318 gen_shunt_g1\[54\]\.d1
*319 gen_shunt_g1\[54\]\.d2
*320 gen_shunt_g1\[55\]\.d1
*321 gen_shunt_g1\[55\]\.d2
*322 gen_shunt_g1\[56\]\.d1
*323 gen_shunt_g1\[56\]\.d2
*324 gen_shunt_g1\[57\]\.d1
*325 gen_shunt_g1\[57\]\.d2
*326 gen_shunt_g1\[58\]\.d1
*327 gen_shunt_g1\[58\]\.d2
*328 gen_shunt_g1\[59\]\.d1
*329 gen_shunt_g1\[59\]\.d2
*330 gen_shunt_g1\[5\]\.d1
*331 gen_shunt_g1\[5\]\.d2
*332 gen_shunt_g1\[60\]\.d1
*333 gen_shunt_g1\[60\]\.d2
*334 gen_shunt_g1\[61\]\.d1
*335 gen_shunt_g1\[61\]\.d2
*336 gen_shunt_g1\[62\]\.d1
*337 gen_shunt_g1\[62\]\.d2
*338 gen_shunt_g1\[63\]\.d1
*339 gen_shunt_g1\[63\]\.d2
*340 gen_shunt_g1\[64\]\.d1
*341 gen_shunt_g1\[64\]\.d2
*342 gen_shunt_g1\[65\]\.d1
*343 gen_shunt_g1\[65\]\.d2
*344 gen_shunt_g1\[66\]\.d1
*345 gen_shunt_g1\[66\]\.d2
*346 gen_shunt_g1\[67\]\.d1
*347 gen_shunt_g1\[67\]\.d2
*348 gen_shunt_g1\[68\]\.d1
*349 gen_shunt_g1\[68\]\.d2
*350 gen_shunt_g1\[69\]\.d1
*351 gen_shunt_g1\[69\]\.d2
*352 gen_shunt_g1\[6\]\.d1
*353 gen_shunt_g1\[6\]\.d2
*354 gen_shunt_g1\[70\]\.d1
*355 gen_shunt_g1\[70\]\.d2
*356 gen_shunt_g1\[71\]\.d1
*357 gen_shunt_g1\[71\]\.d2
*358 gen_shunt_g1\[72\]\.d1
*359 gen_shunt_g1\[72\]\.d2
*360 gen_shunt_g1\[73\]\.d1
*361 gen_shunt_g1\[73\]\.d2
*362 gen_shunt_g1\[74\]\.d1
*363 gen_shunt_g1\[74\]\.d2
*364 gen_shunt_g1\[75\]\.d1
*365 gen_shunt_g1\[75\]\.d2
*366 gen_shunt_g1\[76\]\.d1
*367 gen_shunt_g1\[76\]\.d2
*368 gen_shunt_g1\[77\]\.d1
*369 gen_shunt_g1\[77\]\.d2
*370 gen_shunt_g1\[78\]\.d1
*371 gen_shunt_g1\[78\]\.d2
*372 gen_shunt_g1\[79\]\.d1
*373 gen_shunt_g1\[79\]\.d2
*374 gen_shunt_g1\[7\]\.d1
*375 gen_shunt_g1\[7\]\.d2
*376 gen_shunt_g1\[80\]\.d1
*377 gen_shunt_g1\[80\]\.d2
*378 gen_shunt_g1\[81\]\.d1
*379 gen_shunt_g1\[81\]\.d2
*380 gen_shunt_g1\[82\]\.d1
*381 gen_shunt_g1\[82\]\.d2
*382 gen_shunt_g1\[83\]\.d1
*383 gen_shunt_g1\[83\]\.d2
*384 gen_shunt_g1\[84\]\.d1
*385 gen_shunt_g1\[84\]\.d2
*386 gen_shunt_g1\[85\]\.d1
*387 gen_shunt_g1\[85\]\.d2
*388 gen_shunt_g1\[86\]\.d1
*389 gen_shunt_g1\[86\]\.d2
*390 gen_shunt_g1\[87\]\.d1
*391 gen_shunt_g1\[87\]\.d2
*392 gen_shunt_g1\[88\]\.d1
*393 gen_shunt_g1\[88\]\.d2
*394 gen_shunt_g1\[89\]\.d1
*395 gen_shunt_g1\[89\]\.d2
*396 gen_shunt_g1\[8\]\.d1
*397 gen_shunt_g1\[8\]\.d2
*398 gen_shunt_g1\[90\]\.d1
*399 gen_shunt_g1\[90\]\.d2
*400 gen_shunt_g1\[91\]\.d1
*401 gen_shunt_g1\[91\]\.d2
*402 gen_shunt_g1\[92\]\.d1
*403 gen_shunt_g1\[92\]\.d2
*404 gen_shunt_g1\[93\]\.d1
*405 gen_shunt_g1\[93\]\.d2
*406 gen_shunt_g1\[94\]\.d1
*407 gen_shunt_g1\[94\]\.d2
*408 gen_shunt_g1\[95\]\.d1
*409 gen_shunt_g1\[95\]\.d2
*410 gen_shunt_g1\[96\]\.d1
*411 gen_shunt_g1\[96\]\.d2
*412 gen_shunt_g1\[97\]\.d1
*413 gen_shunt_g1\[97\]\.d2
*414 gen_shunt_g1\[98\]\.d1
*415 gen_shunt_g1\[98\]\.d2
*416 gen_shunt_g1\[99\]\.d1
*417 gen_shunt_g1\[99\]\.d2
*418 gen_shunt_g1\[9\]\.d1
*419 gen_shunt_g1\[9\]\.d2
*420 gen_shunt_g2\[0\]\.d1
*421 gen_shunt_g2\[0\]\.d2
*422 gen_shunt_g2\[10\]\.d1
*423 gen_shunt_g2\[10\]\.d2
*424 gen_shunt_g2\[11\]\.d1
*425 gen_shunt_g2\[11\]\.d2
*426 gen_shunt_g2\[12\]\.d1
*427 gen_shunt_g2\[12\]\.d2
*428 gen_shunt_g2\[13\]\.d1
*429 gen_shunt_g2\[13\]\.d2
*430 gen_shunt_g2\[14\]\.d1
*431 gen_shunt_g2\[14\]\.d2
*432 gen_shunt_g2\[15\]\.d1
*433 gen_shunt_g2\[15\]\.d2
*434 gen_shunt_g2\[16\]\.d1
*435 gen_shunt_g2\[16\]\.d2
*436 gen_shunt_g2\[17\]\.d1
*437 gen_shunt_g2\[17\]\.d2
*438 gen_shunt_g2\[18\]\.d1
*439 gen_shunt_g2\[18\]\.d2
*440 gen_shunt_g2\[19\]\.d1
*441 gen_shunt_g2\[19\]\.d2
*442 gen_shunt_g2\[1\]\.d1
*443 gen_shunt_g2\[1\]\.d2
*444 gen_shunt_g2\[20\]\.d1
*445 gen_shunt_g2\[20\]\.d2
*446 gen_shunt_g2\[21\]\.d1
*447 gen_shunt_g2\[21\]\.d2
*448 gen_shunt_g2\[22\]\.d1
*449 gen_shunt_g2\[22\]\.d2
*450 gen_shunt_g2\[23\]\.d1
*451 gen_shunt_g2\[23\]\.d2
*452 gen_shunt_g2\[24\]\.d1
*453 gen_shunt_g2\[24\]\.d2
*454 gen_shunt_g2\[25\]\.d1
*455 gen_shunt_g2\[25\]\.d2
*456 gen_shunt_g2\[26\]\.d1
*457 gen_shunt_g2\[26\]\.d2
*458 gen_shunt_g2\[27\]\.d1
*459 gen_shunt_g2\[27\]\.d2
*460 gen_shunt_g2\[28\]\.d1
*461 gen_shunt_g2\[28\]\.d2
*462 gen_shunt_g2\[29\]\.d1
*463 gen_shunt_g2\[29\]\.d2
*464 gen_shunt_g2\[2\]\.d1
*465 gen_shunt_g2\[2\]\.d2
*466 gen_shunt_g2\[30\]\.d1
*467 gen_shunt_g2\[30\]\.d2
*468 gen_shunt_g2\[31\]\.d1
*469 gen_shunt_g2\[31\]\.d2
*470 gen_shunt_g2\[32\]\.d1
*471 gen_shunt_g2\[32\]\.d2
*472 gen_shunt_g2\[33\]\.d1
*473 gen_shunt_g2\[33\]\.d2
*474 gen_shunt_g2\[34\]\.d1
*475 gen_shunt_g2\[34\]\.d2
*476 gen_shunt_g2\[35\]\.d1
*477 gen_shunt_g2\[35\]\.d2
*478 gen_shunt_g2\[36\]\.d1
*479 gen_shunt_g2\[36\]\.d2
*480 gen_shunt_g2\[37\]\.d1
*481 gen_shunt_g2\[37\]\.d2
*482 gen_shunt_g2\[38\]\.d1
*483 gen_shunt_g2\[38\]\.d2
*484 gen_shunt_g2\[39\]\.d1
*485 gen_shunt_g2\[39\]\.d2
*486 gen_shunt_g2\[3\]\.d1
*487 gen_shunt_g2\[3\]\.d2
*488 gen_shunt_g2\[40\]\.d1
*489 gen_shunt_g2\[40\]\.d2
*490 gen_shunt_g2\[41\]\.d1
*491 gen_shunt_g2\[41\]\.d2
*492 gen_shunt_g2\[42\]\.d1
*493 gen_shunt_g2\[42\]\.d2
*494 gen_shunt_g2\[43\]\.d1
*495 gen_shunt_g2\[43\]\.d2
*496 gen_shunt_g2\[44\]\.d1
*497 gen_shunt_g2\[44\]\.d2
*498 gen_shunt_g2\[45\]\.d1
*499 gen_shunt_g2\[45\]\.d2
*500 gen_shunt_g2\[46\]\.d1
*501 gen_shunt_g2\[46\]\.d2
*502 gen_shunt_g2\[47\]\.d1
*503 gen_shunt_g2\[47\]\.d2
*504 gen_shunt_g2\[48\]\.d1
*505 gen_shunt_g2\[48\]\.d2
*506 gen_shunt_g2\[49\]\.d1
*507 gen_shunt_g2\[49\]\.d2
*508 gen_shunt_g2\[4\]\.d1
*509 gen_shunt_g2\[4\]\.d2
*510 gen_shunt_g2\[50\]\.d1
*511 gen_shunt_g2\[50\]\.d2
*512 gen_shunt_g2\[51\]\.d1
*513 gen_shunt_g2\[51\]\.d2
*514 gen_shunt_g2\[52\]\.d1
*515 gen_shunt_g2\[52\]\.d2
*516 gen_shunt_g2\[53\]\.d1
*517 gen_shunt_g2\[53\]\.d2
*518 gen_shunt_g2\[54\]\.d1
*519 gen_shunt_g2\[54\]\.d2
*520 gen_shunt_g2\[55\]\.d1
*521 gen_shunt_g2\[55\]\.d2
*522 gen_shunt_g2\[56\]\.d1
*523 gen_shunt_g2\[56\]\.d2
*524 gen_shunt_g2\[57\]\.d1
*525 gen_shunt_g2\[57\]\.d2
*526 gen_shunt_g2\[58\]\.d1
*527 gen_shunt_g2\[58\]\.d2
*528 gen_shunt_g2\[59\]\.d1
*529 gen_shunt_g2\[59\]\.d2
*530 gen_shunt_g2\[5\]\.d1
*531 gen_shunt_g2\[5\]\.d2
*532 gen_shunt_g2\[60\]\.d1
*533 gen_shunt_g2\[60\]\.d2
*534 gen_shunt_g2\[61\]\.d1
*535 gen_shunt_g2\[61\]\.d2
*536 gen_shunt_g2\[62\]\.d1
*537 gen_shunt_g2\[62\]\.d2
*538 gen_shunt_g2\[63\]\.d1
*539 gen_shunt_g2\[63\]\.d2
*540 gen_shunt_g2\[6\]\.d1
*541 gen_shunt_g2\[6\]\.d2
*542 gen_shunt_g2\[7\]\.d1
*543 gen_shunt_g2\[7\]\.d2
*544 gen_shunt_g2\[8\]\.d1
*545 gen_shunt_g2\[8\]\.d2
*546 gen_shunt_g2\[9\]\.d1
*547 gen_shunt_g2\[9\]\.d2
*548 gen_shunt_g3\[0\]\.d1
*549 gen_shunt_g3\[0\]\.d2
*550 gen_shunt_g3\[10\]\.d1
*551 gen_shunt_g3\[10\]\.d2
*552 gen_shunt_g3\[11\]\.d1
*553 gen_shunt_g3\[11\]\.d2
*554 gen_shunt_g3\[12\]\.d1
*555 gen_shunt_g3\[12\]\.d2
*556 gen_shunt_g3\[13\]\.d1
*557 gen_shunt_g3\[13\]\.d2
*558 gen_shunt_g3\[14\]\.d1
*559 gen_shunt_g3\[14\]\.d2
*560 gen_shunt_g3\[15\]\.d1
*561 gen_shunt_g3\[15\]\.d2
*562 gen_shunt_g3\[16\]\.d1
*563 gen_shunt_g3\[16\]\.d2
*564 gen_shunt_g3\[17\]\.d1
*565 gen_shunt_g3\[17\]\.d2
*566 gen_shunt_g3\[18\]\.d1
*567 gen_shunt_g3\[18\]\.d2
*568 gen_shunt_g3\[19\]\.d1
*569 gen_shunt_g3\[19\]\.d2
*570 gen_shunt_g3\[1\]\.d1
*571 gen_shunt_g3\[1\]\.d2
*572 gen_shunt_g3\[20\]\.d1
*573 gen_shunt_g3\[20\]\.d2
*574 gen_shunt_g3\[21\]\.d1
*575 gen_shunt_g3\[21\]\.d2
*576 gen_shunt_g3\[22\]\.d1
*577 gen_shunt_g3\[22\]\.d2
*578 gen_shunt_g3\[23\]\.d1
*579 gen_shunt_g3\[23\]\.d2
*580 gen_shunt_g3\[24\]\.d1
*581 gen_shunt_g3\[24\]\.d2
*582 gen_shunt_g3\[25\]\.d1
*583 gen_shunt_g3\[25\]\.d2
*584 gen_shunt_g3\[26\]\.d1
*585 gen_shunt_g3\[26\]\.d2
*586 gen_shunt_g3\[27\]\.d1
*587 gen_shunt_g3\[27\]\.d2
*588 gen_shunt_g3\[28\]\.d1
*589 gen_shunt_g3\[28\]\.d2
*590 gen_shunt_g3\[29\]\.d1
*591 gen_shunt_g3\[29\]\.d2
*592 gen_shunt_g3\[2\]\.d1
*593 gen_shunt_g3\[2\]\.d2
*594 gen_shunt_g3\[30\]\.d1
*595 gen_shunt_g3\[30\]\.d2
*596 gen_shunt_g3\[31\]\.d1
*597 gen_shunt_g3\[31\]\.d2
*598 gen_shunt_g3\[3\]\.d1
*599 gen_shunt_g3\[3\]\.d2
*600 gen_shunt_g3\[4\]\.d1
*601 gen_shunt_g3\[4\]\.d2
*602 gen_shunt_g3\[5\]\.d1
*603 gen_shunt_g3\[5\]\.d2
*604 gen_shunt_g3\[6\]\.d1
*605 gen_shunt_g3\[6\]\.d2
*606 gen_shunt_g3\[7\]\.d1
*607 gen_shunt_g3\[7\]\.d2
*608 gen_shunt_g3\[8\]\.d1
*609 gen_shunt_g3\[8\]\.d2
*610 gen_shunt_g3\[9\]\.d1
*611 gen_shunt_g3\[9\]\.d2
*612 gen_shunt_g4\[0\]\.d1
*613 gen_shunt_g4\[0\]\.d2
*614 gen_shunt_g4\[10\]\.d1
*615 gen_shunt_g4\[10\]\.d2
*616 gen_shunt_g4\[11\]\.d1
*617 gen_shunt_g4\[11\]\.d2
*618 gen_shunt_g4\[12\]\.d1
*619 gen_shunt_g4\[12\]\.d2
*620 gen_shunt_g4\[13\]\.d1
*621 gen_shunt_g4\[13\]\.d2
*622 gen_shunt_g4\[14\]\.d1
*623 gen_shunt_g4\[14\]\.d2
*624 gen_shunt_g4\[15\]\.d1
*625 gen_shunt_g4\[15\]\.d2
*626 gen_shunt_g4\[1\]\.d1
*627 gen_shunt_g4\[1\]\.d2
*628 gen_shunt_g4\[2\]\.d1
*629 gen_shunt_g4\[2\]\.d2
*630 gen_shunt_g4\[3\]\.d1
*631 gen_shunt_g4\[3\]\.d2
*632 gen_shunt_g4\[4\]\.d1
*633 gen_shunt_g4\[4\]\.d2
*634 gen_shunt_g4\[5\]\.d1
*635 gen_shunt_g4\[5\]\.d2
*636 gen_shunt_g4\[6\]\.d1
*637 gen_shunt_g4\[6\]\.d2
*638 gen_shunt_g4\[7\]\.d1
*639 gen_shunt_g4\[7\]\.d2
*640 gen_shunt_g4\[8\]\.d1
*641 gen_shunt_g4\[8\]\.d2
*642 gen_shunt_g4\[9\]\.d1
*643 gen_shunt_g4\[9\]\.d2
*644 gen_shunt_g5\[0\]\.d1
*645 gen_shunt_g5\[0\]\.d2
*646 gen_shunt_g5\[1\]\.d1
*647 gen_shunt_g5\[1\]\.d2
*648 gen_shunt_g5\[2\]\.d1
*649 gen_shunt_g5\[2\]\.d2
*650 gen_shunt_g5\[3\]\.d1
*651 gen_shunt_g5\[3\]\.d2
*652 gen_shunt_g5\[4\]\.d1
*653 gen_shunt_g5\[4\]\.d2
*654 gen_shunt_g5\[5\]\.d1
*655 gen_shunt_g5\[5\]\.d2
*656 gen_shunt_g5\[6\]\.d1
*657 gen_shunt_g5\[6\]\.d2
*658 gen_shunt_g5\[7\]\.d1
*659 gen_shunt_g5\[7\]\.d2
*660 gen_shunt_g6\[0\]\.d1
*661 gen_shunt_g6\[0\]\.d2
*662 gen_shunt_g6\[1\]\.d1
*663 gen_shunt_g6\[1\]\.d2
*664 gen_shunt_g6\[2\]\.d1
*665 gen_shunt_g6\[2\]\.d2
*666 gen_shunt_g6\[3\]\.d1
*667 gen_shunt_g6\[3\]\.d2
*668 gen_shunt_g7\[0\]\.d1
*669 gen_shunt_g7\[0\]\.d2
*670 gen_shunt_g7\[1\]\.d1
*671 gen_shunt_g7\[1\]\.d2
*672 gen_shunt_g8\[0\]\.d1
*673 gen_shunt_g8\[0\]\.d2
*674 gen_shunt_gy_g1\[0\]\.d1
*675 gen_shunt_gy_g1\[0\]\.d2
*676 gen_shunt_gy_g1\[0\]\.d3
*677 gen_shunt_gy_g1\[0\]\.d4
*678 gen_shunt_gy_g1\[1\]\.d1
*679 gen_shunt_gy_g1\[1\]\.d2
*680 gen_shunt_gy_g1\[1\]\.d3
*681 gen_shunt_gy_g1\[1\]\.d4
*682 gen_shunt_gy_g1\[2\]\.d1
*683 gen_shunt_gy_g1\[2\]\.d2
*684 gen_shunt_gy_g1\[2\]\.d3
*685 gen_shunt_gy_g1\[2\]\.d4
*686 gen_shunt_gy_g1\[3\]\.d1
*687 gen_shunt_gy_g1\[3\]\.d2
*688 gen_shunt_gy_g1\[3\]\.d3
*689 gen_shunt_gy_g1\[3\]\.d4
*690 gen_shunt_gy_g1\[4\]\.d1
*691 gen_shunt_gy_g1\[4\]\.d2
*692 gen_shunt_gy_g1\[4\]\.d3
*693 gen_shunt_gy_g1\[4\]\.d4
*694 gen_shunt_gy_g1\[5\]\.d1
*695 gen_shunt_gy_g1\[5\]\.d2
*696 gen_shunt_gy_g1\[5\]\.d3
*697 gen_shunt_gy_g1\[5\]\.d4
*698 gen_shunt_gy_g1\[6\]\.d1
*699 gen_shunt_gy_g1\[6\]\.d2
*700 gen_shunt_gy_g1\[6\]\.d3
*701 gen_shunt_gy_g1\[6\]\.d4
*702 gen_shunt_gy_g1\[7\]\.d1
*703 gen_shunt_gy_g1\[7\]\.d2
*704 gen_shunt_gy_g1\[7\]\.d3
*705 gen_shunt_gy_g1\[7\]\.d4
*706 gen_shunt_gy_g2\[0\]\.d1
*707 gen_shunt_gy_g2\[0\]\.d2
*708 gen_shunt_gy_g2\[0\]\.d3
*709 gen_shunt_gy_g2\[0\]\.d4
*710 gen_shunt_gy_g2\[1\]\.d1
*711 gen_shunt_gy_g2\[1\]\.d2
*712 gen_shunt_gy_g2\[1\]\.d3
*713 gen_shunt_gy_g2\[1\]\.d4
*714 gen_shunt_gy_g2\[2\]\.d1
*715 gen_shunt_gy_g2\[2\]\.d2
*716 gen_shunt_gy_g2\[2\]\.d3
*717 gen_shunt_gy_g2\[2\]\.d4
*718 gen_shunt_gy_g2\[3\]\.d1
*719 gen_shunt_gy_g2\[3\]\.d2
*720 gen_shunt_gy_g2\[3\]\.d3
*721 gen_shunt_gy_g2\[3\]\.d4
*722 gen_shunt_gy_g3\[0\]\.d1
*723 gen_shunt_gy_g3\[0\]\.d2
*724 gen_shunt_gy_g3\[0\]\.d3
*725 gen_shunt_gy_g3\[0\]\.d4
*726 gen_shunt_gy_g3\[1\]\.d1
*727 gen_shunt_gy_g3\[1\]\.d2
*728 gen_shunt_gy_g3\[1\]\.d3
*729 gen_shunt_gy_g3\[1\]\.d4
*730 gen_shunt_gy_g4\[0\]\.d1
*731 gen_shunt_gy_g4\[0\]\.d2
*732 gen_shunt_gygy_g1\[0\]\.d1
*733 gen_shunt_gygy_g1\[0\]\.d2
*734 gen_shunt_gygy_g1\[1\]\.d1
*735 gen_shunt_gygy_g1\[1\]\.d2
*736 gen_shunt_gygy_g1\[2\]\.d1
*737 gen_shunt_gygy_g1\[2\]\.d2
*738 gen_shunt_gygy_g1\[3\]\.d1
*739 gen_shunt_gygy_g1\[3\]\.d2
*740 gen_shunt_gygy_g1\[4\]\.d1
*741 gen_shunt_gygy_g1\[4\]\.d2
*742 gen_shunt_gygy_g1\[5\]\.d1
*743 gen_shunt_gygy_g1\[5\]\.d2
*744 gen_shunt_gygy_g1\[6\]\.d1
*745 gen_shunt_gygy_g1\[6\]\.d2
*746 gen_shunt_gygy_g1\[7\]\.d1
*747 gen_shunt_gygy_g1\[7\]\.d2
*748 gen_shunt_gygy_g2\[0\]\.d1
*749 gen_shunt_gygy_g2\[0\]\.d2
*750 gen_shunt_gygy_g2\[1\]\.d1
*751 gen_shunt_gygy_g2\[1\]\.d2
*752 gen_shunt_gygy_g2\[2\]\.d1
*753 gen_shunt_gygy_g2\[2\]\.d2
*754 gen_shunt_gygy_g2\[3\]\.d1
*755 gen_shunt_gygy_g2\[3\]\.d2
*756 gen_shunt_gygy_g3\[0\]\.d1
*757 gen_shunt_gygy_g3\[0\]\.d2
*758 gen_shunt_gygy_g3\[1\]\.d1
*759 gen_shunt_gygy_g3\[1\]\.d2
*760 gen_shunt_gygy_g6\[0\]\.d1
*761 gen_shunt_gygy_g6\[0\]\.d2
*762 gen_shunt_gygy_g6\[0\]\.d3
*763 gen_shunt_gygy_g6\[0\]\.d4
*764 gen_shunt_gygy_g6\[0\]\.d5
*765 gen_shunt_gygy_g6\[0\]\.d6
*766 FILLER_0_104
*767 FILLER_0_107
*768 FILLER_0_139
*769 FILLER_0_142
*770 FILLER_0_174
*771 FILLER_0_177
*772 FILLER_0_2
*773 FILLER_0_209
*774 FILLER_0_212
*775 FILLER_0_244
*776 FILLER_0_247
*777 FILLER_0_251
*778 FILLER_0_276
*779 FILLER_0_282
*780 FILLER_0_307
*781 FILLER_0_317
*782 FILLER_0_34
*783 FILLER_0_342
*784 FILLER_0_352
*785 FILLER_0_37
*786 FILLER_0_384
*787 FILLER_0_387
*788 FILLER_0_412
*789 FILLER_0_422
*790 FILLER_0_447
*791 FILLER_0_457
*792 FILLER_0_482
*793 FILLER_0_492
*794 FILLER_0_517
*795 FILLER_0_527
*796 FILLER_0_552
*797 FILLER_0_562
*798 FILLER_0_587
*799 FILLER_0_597
*800 FILLER_0_622
*801 FILLER_0_632
*802 FILLER_0_657
*803 FILLER_0_667
*804 FILLER_0_676
*805 FILLER_0_686
*806 FILLER_0_69
*807 FILLER_0_72
*808 FILLER_10_105
*809 FILLER_10_108
*810 FILLER_10_124
*811 FILLER_10_150
*812 FILLER_10_176
*813 FILLER_10_179
*814 FILLER_10_195
*815 FILLER_10_2
*816 FILLER_10_221
*817 FILLER_10_247
*818 FILLER_10_250
*819 FILLER_10_254
*820 FILLER_10_280
*821 FILLER_10_306
*822 FILLER_10_314
*823 FILLER_10_318
*824 FILLER_10_321
*825 FILLER_10_34
*826 FILLER_10_346
*827 FILLER_10_37
*828 FILLER_10_372
*829 FILLER_10_388
*830 FILLER_10_392
*831 FILLER_10_417
*832 FILLER_10_443
*833 FILLER_10_459
*834 FILLER_10_463
*835 FILLER_10_488
*836 FILLER_10_514
*837 FILLER_10_522
*838 FILLER_10_53
*839 FILLER_10_531
*840 FILLER_10_534
*841 FILLER_10_559
*842 FILLER_10_585
*843 FILLER_10_595
*844 FILLER_10_605
*845 FILLER_10_630
*846 FILLER_10_656
*847 FILLER_10_666
*848 FILLER_10_676
*849 FILLER_10_684
*850 FILLER_10_79
*851 FILLER_11_115
*852 FILLER_11_141
*853 FILLER_11_144
*854 FILLER_11_160
*855 FILLER_11_18
*856 FILLER_11_186
*857 FILLER_11_2
*858 FILLER_11_212
*859 FILLER_11_215
*860 FILLER_11_255
*861 FILLER_11_281
*862 FILLER_11_283
*863 FILLER_11_286
*864 FILLER_11_311
*865 FILLER_11_337
*866 FILLER_11_353
*867 FILLER_11_357
*868 FILLER_11_382
*869 FILLER_11_408
*870 FILLER_11_424
*871 FILLER_11_428
*872 FILLER_11_44
*873 FILLER_11_453
*874 FILLER_11_479
*875 FILLER_11_495
*876 FILLER_11_499
*877 FILLER_11_524
*878 FILLER_11_550
*879 FILLER_11_558
*880 FILLER_11_567
*881 FILLER_11_570
*882 FILLER_11_595
*883 FILLER_11_621
*884 FILLER_11_631
*885 FILLER_11_641
*886 FILLER_11_666
*887 FILLER_11_682
*888 FILLER_11_686
*889 FILLER_11_70
*890 FILLER_11_73
*891 FILLER_11_89
*892 FILLER_12_105
*893 FILLER_12_108
*894 FILLER_12_124
*895 FILLER_12_150
*896 FILLER_12_176
*897 FILLER_12_179
*898 FILLER_12_195
*899 FILLER_12_2
*900 FILLER_12_221
*901 FILLER_12_247
*902 FILLER_12_250
*903 FILLER_12_266
*904 FILLER_12_274
*905 FILLER_12_299
*906 FILLER_12_315
*907 FILLER_12_321
*908 FILLER_12_34
*909 FILLER_12_346
*910 FILLER_12_37
*911 FILLER_12_372
*912 FILLER_12_388
*913 FILLER_12_392
*914 FILLER_12_417
*915 FILLER_12_443
*916 FILLER_12_459
*917 FILLER_12_463
*918 FILLER_12_488
*919 FILLER_12_514
*920 FILLER_12_522
*921 FILLER_12_53
*922 FILLER_12_531
*923 FILLER_12_534
*924 FILLER_12_559
*925 FILLER_12_585
*926 FILLER_12_595
*927 FILLER_12_605
*928 FILLER_12_630
*929 FILLER_12_656
*930 FILLER_12_672
*931 FILLER_12_676
*932 FILLER_12_684
*933 FILLER_12_79
*934 FILLER_13_115
*935 FILLER_13_141
*936 FILLER_13_144
*937 FILLER_13_160
*938 FILLER_13_18
*939 FILLER_13_186
*940 FILLER_13_2
*941 FILLER_13_212
*942 FILLER_13_215
*943 FILLER_13_231
*944 FILLER_13_256
*945 FILLER_13_258
*946 FILLER_13_283
*947 FILLER_13_286
*948 FILLER_13_311
*949 FILLER_13_337
*950 FILLER_13_353
*951 FILLER_13_357
*952 FILLER_13_382
*953 FILLER_13_408
*954 FILLER_13_424
*955 FILLER_13_428
*956 FILLER_13_44
*957 FILLER_13_453
*958 FILLER_13_479
*959 FILLER_13_495
*960 FILLER_13_499
*961 FILLER_13_524
*962 FILLER_13_550
*963 FILLER_13_558
*964 FILLER_13_567
*965 FILLER_13_570
*966 FILLER_13_595
*967 FILLER_13_621
*968 FILLER_13_631
*969 FILLER_13_641
*970 FILLER_13_666
*971 FILLER_13_682
*972 FILLER_13_686
*973 FILLER_13_70
*974 FILLER_13_73
*975 FILLER_13_89
*976 FILLER_14_105
*977 FILLER_14_108
*978 FILLER_14_124
*979 FILLER_14_150
*980 FILLER_14_176
*981 FILLER_14_179
*982 FILLER_14_195
*983 FILLER_14_2
*984 FILLER_14_221
*985 FILLER_14_247
*986 FILLER_14_250
*987 FILLER_14_254
*988 FILLER_14_256
*989 FILLER_14_281
*990 FILLER_14_309
*991 FILLER_14_317
*992 FILLER_14_321
*993 FILLER_14_34
*994 FILLER_14_346
*995 FILLER_14_37
*996 FILLER_14_372
*997 FILLER_14_388
*998 FILLER_14_392
*999 FILLER_14_417
*1000 FILLER_14_443
*1001 FILLER_14_459
*1002 FILLER_14_463
*1003 FILLER_14_488
*1004 FILLER_14_514
*1005 FILLER_14_53
*1006 FILLER_14_530
*1007 FILLER_14_534
*1008 FILLER_14_559
*1009 FILLER_14_585
*1010 FILLER_14_595
*1011 FILLER_14_605
*1012 FILLER_14_630
*1013 FILLER_14_656
*1014 FILLER_14_672
*1015 FILLER_14_676
*1016 FILLER_14_684
*1017 FILLER_14_79
*1018 FILLER_15_115
*1019 FILLER_15_141
*1020 FILLER_15_144
*1021 FILLER_15_160
*1022 FILLER_15_18
*1023 FILLER_15_186
*1024 FILLER_15_2
*1025 FILLER_15_212
*1026 FILLER_15_215
*1027 FILLER_15_231
*1028 FILLER_15_257
*1029 FILLER_15_283
*1030 FILLER_15_286
*1031 FILLER_15_311
*1032 FILLER_15_337
*1033 FILLER_15_353
*1034 FILLER_15_357
*1035 FILLER_15_382
*1036 FILLER_15_408
*1037 FILLER_15_424
*1038 FILLER_15_428
*1039 FILLER_15_44
*1040 FILLER_15_453
*1041 FILLER_15_479
*1042 FILLER_15_495
*1043 FILLER_15_499
*1044 FILLER_15_524
*1045 FILLER_15_550
*1046 FILLER_15_558
*1047 FILLER_15_567
*1048 FILLER_15_570
*1049 FILLER_15_595
*1050 FILLER_15_621
*1051 FILLER_15_637
*1052 FILLER_15_641
*1053 FILLER_15_666
*1054 FILLER_15_682
*1055 FILLER_15_686
*1056 FILLER_15_70
*1057 FILLER_15_73
*1058 FILLER_15_89
*1059 FILLER_16_105
*1060 FILLER_16_108
*1061 FILLER_16_124
*1062 FILLER_16_150
*1063 FILLER_16_176
*1064 FILLER_16_179
*1065 FILLER_16_195
*1066 FILLER_16_2
*1067 FILLER_16_221
*1068 FILLER_16_247
*1069 FILLER_16_250
*1070 FILLER_16_258
*1071 FILLER_16_284
*1072 FILLER_16_310
*1073 FILLER_16_318
*1074 FILLER_16_321
*1075 FILLER_16_34
*1076 FILLER_16_346
*1077 FILLER_16_37
*1078 FILLER_16_372
*1079 FILLER_16_388
*1080 FILLER_16_392
*1081 FILLER_16_417
*1082 FILLER_16_443
*1083 FILLER_16_459
*1084 FILLER_16_463
*1085 FILLER_16_488
*1086 FILLER_16_514
*1087 FILLER_16_53
*1088 FILLER_16_530
*1089 FILLER_16_534
*1090 FILLER_16_559
*1091 FILLER_16_585
*1092 FILLER_16_595
*1093 FILLER_16_605
*1094 FILLER_16_630
*1095 FILLER_16_656
*1096 FILLER_16_672
*1097 FILLER_16_676
*1098 FILLER_16_684
*1099 FILLER_16_79
*1100 FILLER_17_115
*1101 FILLER_17_141
*1102 FILLER_17_144
*1103 FILLER_17_160
*1104 FILLER_17_18
*1105 FILLER_17_186
*1106 FILLER_17_2
*1107 FILLER_17_212
*1108 FILLER_17_215
*1109 FILLER_17_231
*1110 FILLER_17_257
*1111 FILLER_17_283
*1112 FILLER_17_286
*1113 FILLER_17_290
*1114 FILLER_17_316
*1115 FILLER_17_342
*1116 FILLER_17_350
*1117 FILLER_17_354
*1118 FILLER_17_357
*1119 FILLER_17_382
*1120 FILLER_17_408
*1121 FILLER_17_424
*1122 FILLER_17_428
*1123 FILLER_17_44
*1124 FILLER_17_453
*1125 FILLER_17_479
*1126 FILLER_17_495
*1127 FILLER_17_499
*1128 FILLER_17_524
*1129 FILLER_17_550
*1130 FILLER_17_558
*1131 FILLER_17_567
*1132 FILLER_17_570
*1133 FILLER_17_595
*1134 FILLER_17_621
*1135 FILLER_17_637
*1136 FILLER_17_641
*1137 FILLER_17_666
*1138 FILLER_17_682
*1139 FILLER_17_686
*1140 FILLER_17_70
*1141 FILLER_17_73
*1142 FILLER_17_89
*1143 FILLER_18_105
*1144 FILLER_18_108
*1145 FILLER_18_124
*1146 FILLER_18_150
*1147 FILLER_18_176
*1148 FILLER_18_179
*1149 FILLER_18_195
*1150 FILLER_18_2
*1151 FILLER_18_221
*1152 FILLER_18_247
*1153 FILLER_18_250
*1154 FILLER_18_258
*1155 FILLER_18_262
*1156 FILLER_18_287
*1157 FILLER_18_291
*1158 FILLER_18_293
*1159 FILLER_18_318
*1160 FILLER_18_321
*1161 FILLER_18_34
*1162 FILLER_18_346
*1163 FILLER_18_37
*1164 FILLER_18_372
*1165 FILLER_18_388
*1166 FILLER_18_392
*1167 FILLER_18_417
*1168 FILLER_18_443
*1169 FILLER_18_459
*1170 FILLER_18_463
*1171 FILLER_18_488
*1172 FILLER_18_514
*1173 FILLER_18_53
*1174 FILLER_18_530
*1175 FILLER_18_534
*1176 FILLER_18_559
*1177 FILLER_18_585
*1178 FILLER_18_601
*1179 FILLER_18_605
*1180 FILLER_18_630
*1181 FILLER_18_656
*1182 FILLER_18_672