*SPEF "ieee 1481-1999"
*DESIGN "caparray_s2"
*DATE "11:11:11 Fri 11 11, 1111"
*VENDOR "OpenRCX"
*PROGRAM "Parallel Extraction"
*VERSION "1.0"
*DESIGN_FLOW "NAME_SCOPE LOCAL" "PIN_CAP NONE"
*DIVIDER /
*DELIMITER :
*BUS_DELIMITER []
*T_UNIT 1 NS
*C_UNIT 1 PF
*R_UNIT 1 OHM
*L_UNIT 1 HENRY

*NAME_MAP
*1 cap_series_gygyn
*2 cap_series_gygyp
*3 cap_series_gyn
*4 cap_series_gyp
*5 cap_shunt_gyn
*6 cap_shunt_gyp
*7 cap_shunt_n
*8 cap_shunt_p
*9 tune_series_gy[0]
*10 tune_series_gy[1]
*11 tune_series_gy[2]
*12 tune_series_gy[3]
*13 tune_series_gy[4]
*14 tune_series_gy[5]
*15 tune_series_gy[6]
*16 tune_series_gy[7]
*17 tune_series_gygy[0]
*18 tune_series_gygy[1]
*19 tune_series_gygy[2]
*20 tune_series_gygy[3]
*21 tune_series_gygy[4]
*22 tune_series_gygy[5]
*23 tune_series_gygy[6]
*24 tune_series_gygy[7]
*25 tune_shunt[0]
*26 tune_shunt[10]
*27 tune_shunt[1]
*28 tune_shunt[2]
*29 tune_shunt[3]
*30 tune_shunt[4]
*31 tune_shunt[5]
*32 tune_shunt[6]
*33 tune_shunt[7]
*34 tune_shunt[8]
*35 tune_shunt[9]
*36 tune_shunt_gy[0]
*37 tune_shunt_gy[1]
*38 tune_shunt_gy[2]
*39 tune_shunt_gy[3]
*40 tune_shunt_gy[4]
*43 gen_series_gy_g1\[0\]\.d1
*44 gen_series_gy_g1\[0\]\.d2
*45 gen_series_gy_g1\[10\]\.d1
*46 gen_series_gy_g1\[10\]\.d2
*47 gen_series_gy_g1\[11\]\.d1
*48 gen_series_gy_g1\[11\]\.d2
*49 gen_series_gy_g1\[12\]\.d1
*50 gen_series_gy_g1\[12\]\.d2
*51 gen_series_gy_g1\[13\]\.d1
*52 gen_series_gy_g1\[13\]\.d2
*53 gen_series_gy_g1\[14\]\.d1
*54 gen_series_gy_g1\[14\]\.d2
*55 gen_series_gy_g1\[15\]\.d1
*56 gen_series_gy_g1\[15\]\.d2
*57 gen_series_gy_g1\[16\]\.d1
*58 gen_series_gy_g1\[16\]\.d2
*59 gen_series_gy_g1\[17\]\.d1
*60 gen_series_gy_g1\[17\]\.d2
*61 gen_series_gy_g1\[18\]\.d1
*62 gen_series_gy_g1\[18\]\.d2
*63 gen_series_gy_g1\[19\]\.d1
*64 gen_series_gy_g1\[19\]\.d2
*65 gen_series_gy_g1\[1\]\.d1
*66 gen_series_gy_g1\[1\]\.d2
*67 gen_series_gy_g1\[20\]\.d1
*68 gen_series_gy_g1\[20\]\.d2
*69 gen_series_gy_g1\[21\]\.d1
*70 gen_series_gy_g1\[21\]\.d2
*71 gen_series_gy_g1\[22\]\.d1
*72 gen_series_gy_g1\[22\]\.d2
*73 gen_series_gy_g1\[23\]\.d1
*74 gen_series_gy_g1\[23\]\.d2
*75 gen_series_gy_g1\[24\]\.d1
*76 gen_series_gy_g1\[24\]\.d2
*77 gen_series_gy_g1\[25\]\.d1
*78 gen_series_gy_g1\[25\]\.d2
*79 gen_series_gy_g1\[26\]\.d1
*80 gen_series_gy_g1\[26\]\.d2
*81 gen_series_gy_g1\[27\]\.d1
*82 gen_series_gy_g1\[27\]\.d2
*83 gen_series_gy_g1\[28\]\.d1
*84 gen_series_gy_g1\[28\]\.d2
*85 gen_series_gy_g1\[29\]\.d1
*86 gen_series_gy_g1\[29\]\.d2
*87 gen_series_gy_g1\[2\]\.d1
*88 gen_series_gy_g1\[2\]\.d2
*89 gen_series_gy_g1\[30\]\.d1
*90 gen_series_gy_g1\[30\]\.d2
*91 gen_series_gy_g1\[31\]\.d1
*92 gen_series_gy_g1\[31\]\.d2
*93 gen_series_gy_g1\[3\]\.d1
*94 gen_series_gy_g1\[3\]\.d2
*95 gen_series_gy_g1\[4\]\.d1
*96 gen_series_gy_g1\[4\]\.d2
*97 gen_series_gy_g1\[5\]\.d1
*98 gen_series_gy_g1\[5\]\.d2
*99 gen_series_gy_g1\[6\]\.d1
*100 gen_series_gy_g1\[6\]\.d2
*101 gen_series_gy_g1\[7\]\.d1
*102 gen_series_gy_g1\[7\]\.d2
*103 gen_series_gy_g1\[8\]\.d1
*104 gen_series_gy_g1\[8\]\.d2
*105 gen_series_gy_g1\[9\]\.d1
*106 gen_series_gy_g1\[9\]\.d2
*107 gen_series_gy_g2\[0\]\.d1
*108 gen_series_gy_g2\[0\]\.d2
*109 gen_series_gy_g2\[10\]\.d1
*110 gen_series_gy_g2\[10\]\.d2
*111 gen_series_gy_g2\[11\]\.d1
*112 gen_series_gy_g2\[11\]\.d2
*113 gen_series_gy_g2\[12\]\.d1
*114 gen_series_gy_g2\[12\]\.d2
*115 gen_series_gy_g2\[13\]\.d1
*116 gen_series_gy_g2\[13\]\.d2
*117 gen_series_gy_g2\[14\]\.d1
*118 gen_series_gy_g2\[14\]\.d2
*119 gen_series_gy_g2\[15\]\.d1
*120 gen_series_gy_g2\[15\]\.d2
*121 gen_series_gy_g2\[1\]\.d1
*122 gen_series_gy_g2\[1\]\.d2
*123 gen_series_gy_g2\[2\]\.d1
*124 gen_series_gy_g2\[2\]\.d2
*125 gen_series_gy_g2\[3\]\.d1
*126 gen_series_gy_g2\[3\]\.d2
*127 gen_series_gy_g2\[4\]\.d1
*128 gen_series_gy_g2\[4\]\.d2
*129 gen_series_gy_g2\[5\]\.d1
*130 gen_series_gy_g2\[5\]\.d2
*131 gen_series_gy_g2\[6\]\.d1
*132 gen_series_gy_g2\[6\]\.d2
*133 gen_series_gy_g2\[7\]\.d1
*134 gen_series_gy_g2\[7\]\.d2
*135 gen_series_gy_g2\[8\]\.d1
*136 gen_series_gy_g2\[8\]\.d2
*137 gen_series_gy_g2\[9\]\.d1
*138 gen_series_gy_g2\[9\]\.d2
*139 gen_series_gy_g3\[0\]\.d1
*140 gen_series_gy_g3\[0\]\.d2
*141 gen_series_gy_g3\[0\]\.d3
*142 gen_series_gy_g3\[0\]\.d4
*143 gen_series_gy_g3\[1\]\.d1
*144 gen_series_gy_g3\[1\]\.d2
*145 gen_series_gy_g3\[1\]\.d3
*146 gen_series_gy_g3\[1\]\.d4
*147 gen_series_gy_g3\[2\]\.d1
*148 gen_series_gy_g3\[2\]\.d2
*149 gen_series_gy_g3\[2\]\.d3
*150 gen_series_gy_g3\[2\]\.d4
*151 gen_series_gy_g3\[3\]\.d1
*152 gen_series_gy_g3\[3\]\.d2
*153 gen_series_gy_g3\[3\]\.d3
*154 gen_series_gy_g3\[3\]\.d4
*155 gen_series_gy_g3\[4\]\.d1
*156 gen_series_gy_g3\[4\]\.d2
*157 gen_series_gy_g3\[4\]\.d3
*158 gen_series_gy_g3\[4\]\.d4
*159 gen_series_gy_g3\[5\]\.d1
*160 gen_series_gy_g3\[5\]\.d2
*161 gen_series_gy_g3\[5\]\.d3
*162 gen_series_gy_g3\[5\]\.d4
*163 gen_series_gy_g3\[6\]\.d1
*164 gen_series_gy_g3\[6\]\.d2
*165 gen_series_gy_g3\[6\]\.d3
*166 gen_series_gy_g3\[6\]\.d4
*167 gen_series_gy_g3\[7\]\.d1
*168 gen_series_gy_g3\[7\]\.d2
*169 gen_series_gy_g3\[7\]\.d3
*170 gen_series_gy_g3\[7\]\.d4
*171 gen_series_gy_g4\[0\]\.d1
*172 gen_series_gy_g4\[0\]\.d2
*173 gen_series_gy_g4\[0\]\.d3
*174 gen_series_gy_g4\[0\]\.d4
*175 gen_series_gy_g4\[1\]\.d1
*176 gen_series_gy_g4\[1\]\.d2
*177 gen_series_gy_g4\[1\]\.d3
*178 gen_series_gy_g4\[1\]\.d4
*179 gen_series_gy_g4\[2\]\.d1
*180 gen_series_gy_g4\[2\]\.d2
*181 gen_series_gy_g4\[2\]\.d3
*182 gen_series_gy_g4\[2\]\.d4
*183 gen_series_gy_g4\[3\]\.d1
*184 gen_series_gy_g4\[3\]\.d2
*185 gen_series_gy_g4\[3\]\.d3
*186 gen_series_gy_g4\[3\]\.d4
*187 gen_series_gy_g5\[0\]\.d1
*188 gen_series_gy_g5\[0\]\.d2
*189 gen_series_gy_g5\[1\]\.d1
*190 gen_series_gy_g5\[1\]\.d2
*191 gen_series_gy_g6\[0\]\.d1
*192 gen_series_gy_g6\[0\]\.d2
*193 gen_shunt_g1\[0\]\.d1
*194 gen_shunt_g1\[0\]\.d2
*195 gen_shunt_g1\[10\]\.d1
*196 gen_shunt_g1\[10\]\.d2
*197 gen_shunt_g1\[11\]\.d1
*198 gen_shunt_g1\[11\]\.d2
*199 gen_shunt_g1\[12\]\.d1
*200 gen_shunt_g1\[12\]\.d2
*201 gen_shunt_g1\[13\]\.d1
*202 gen_shunt_g1\[13\]\.d2
*203 gen_shunt_g1\[14\]\.d1
*204 gen_shunt_g1\[14\]\.d2
*205 gen_shunt_g1\[15\]\.d1
*206 gen_shunt_g1\[15\]\.d2
*207 gen_shunt_g1\[16\]\.d1
*208 gen_shunt_g1\[16\]\.d2
*209 gen_shunt_g1\[17\]\.d1
*210 gen_shunt_g1\[17\]\.d2
*211 gen_shunt_g1\[18\]\.d1
*212 gen_shunt_g1\[18\]\.d2
*213 gen_shunt_g1\[19\]\.d1
*214 gen_shunt_g1\[19\]\.d2
*215 gen_shunt_g1\[1\]\.d1
*216 gen_shunt_g1\[1\]\.d2
*217 gen_shunt_g1\[20\]\.d1
*218 gen_shunt_g1\[20\]\.d2
*219 gen_shunt_g1\[21\]\.d1
*220 gen_shunt_g1\[21\]\.d2
*221 gen_shunt_g1\[22\]\.d1
*222 gen_shunt_g1\[22\]\.d2
*223 gen_shunt_g1\[23\]\.d1
*224 gen_shunt_g1\[23\]\.d2
*225 gen_shunt_g1\[24\]\.d1
*226 gen_shunt_g1\[24\]\.d2
*227 gen_shunt_g1\[25\]\.d1
*228 gen_shunt_g1\[25\]\.d2
*229 gen_shunt_g1\[26\]\.d1
*230 gen_shunt_g1\[26\]\.d2
*231 gen_shunt_g1\[27\]\.d1
*232 gen_shunt_g1\[27\]\.d2
*233 gen_shunt_g1\[28\]\.d1
*234 gen_shunt_g1\[28\]\.d2
*235 gen_shunt_g1\[29\]\.d1
*236 gen_shunt_g1\[29\]\.d2
*237 gen_shunt_g1\[2\]\.d1
*238 gen_shunt_g1\[2\]\.d2
*239 gen_shunt_g1\[30\]\.d1
*240 gen_shunt_g1\[30\]\.d2
*241 gen_shunt_g1\[31\]\.d1
*242 gen_shunt_g1\[31\]\.d2
*243 gen_shunt_g1\[32\]\.d1
*244 gen_shunt_g1\[32\]\.d2
*245 gen_shunt_g1\[33\]\.d1
*246 gen_shunt_g1\[33\]\.d2
*247 gen_shunt_g1\[34\]\.d1
*248 gen_shunt_g1\[34\]\.d2
*249 gen_shunt_g1\[35\]\.d1
*250 gen_shunt_g1\[35\]\.d2
*251 gen_shunt_g1\[36\]\.d1
*252 gen_shunt_g1\[36\]\.d2
*253 gen_shunt_g1\[37\]\.d1
*254 gen_shunt_g1\[37\]\.d2
*255 gen_shunt_g1\[38\]\.d1
*256 gen_shunt_g1\[38\]\.d2
*257 gen_shunt_g1\[39\]\.d1
*258 gen_shunt_g1\[39\]\.d2
*259 gen_shunt_g1\[3\]\.d1
*260 gen_shunt_g1\[3\]\.d2
*261 gen_shunt_g1\[40\]\.d1
*262 gen_shunt_g1\[40\]\.d2
*263 gen_shunt_g1\[41\]\.d1
*264 gen_shunt_g1\[41\]\.d2
*265 gen_shunt_g1\[42\]\.d1
*266 gen_shunt_g1\[42\]\.d2
*267 gen_shunt_g1\[43\]\.d1
*268 gen_shunt_g1\[43\]\.d2
*269 gen_shunt_g1\[44\]\.d1
*270 gen_shunt_g1\[44\]\.d2
*271 gen_shunt_g1\[45\]\.d1
*272 gen_shunt_g1\[45\]\.d2
*273 gen_shunt_g1\[46\]\.d1
*274 gen_shunt_g1\[46\]\.d2
*275 gen_shunt_g1\[47\]\.d1
*276 gen_shunt_g1\[47\]\.d2
*277 gen_shunt_g1\[48\]\.d1
*278 gen_shunt_g1\[48\]\.d2
*279 gen_shunt_g1\[49\]\.d1
*280 gen_shunt_g1\[49\]\.d2
*281 gen_shunt_g1\[4\]\.d1
*282 gen_shunt_g1\[4\]\.d2
*283 gen_shunt_g1\[50\]\.d1
*284 gen_shunt_g1\[50\]\.d2
*285 gen_shunt_g1\[51\]\.d1
*286 gen_shunt_g1\[51\]\.d2
*287 gen_shunt_g1\[52\]\.d1
*288 gen_shunt_g1\[52\]\.d2
*289 gen_shunt_g1\[53\]\.d1
*290 gen_shunt_g1\[53\]\.d2
*291 gen_shunt_g1\[54\]\.d1
*292 gen_shunt_g1\[54\]\.d2
*293 gen_shunt_g1\[55\]\.d1
*294 gen_shunt_g1\[55\]\.d2
*295 gen_shunt_g1\[56\]\.d1
*296 gen_shunt_g1\[56\]\.d2
*297 gen_shunt_g1\[57\]\.d1
*298 gen_shunt_g1\[57\]\.d2
*299 gen_shunt_g1\[58\]\.d1
*300 gen_shunt_g1\[58\]\.d2
*301 gen_shunt_g1\[59\]\.d1
*302 gen_shunt_g1\[59\]\.d2
*303 gen_shunt_g1\[5\]\.d1
*304 gen_shunt_g1\[5\]\.d2
*305 gen_shunt_g1\[60\]\.d1
*306 gen_shunt_g1\[60\]\.d2
*307 gen_shunt_g1\[61\]\.d1
*308 gen_shunt_g1\[61\]\.d2
*309 gen_shunt_g1\[62\]\.d1
*310 gen_shunt_g1\[62\]\.d2
*311 gen_shunt_g1\[63\]\.d1
*312 gen_shunt_g1\[63\]\.d2
*313 gen_shunt_g1\[6\]\.d1
*314 gen_shunt_g1\[6\]\.d2
*315 gen_shunt_g1\[7\]\.d1
*316 gen_shunt_g1\[7\]\.d2
*317 gen_shunt_g1\[8\]\.d1
*318 gen_shunt_g1\[8\]\.d2
*319 gen_shunt_g1\[9\]\.d1
*320 gen_shunt_g1\[9\]\.d2
*321 gen_shunt_g2\[0\]\.d1
*322 gen_shunt_g2\[0\]\.d2
*323 gen_shunt_g2\[0\]\.d3
*324 gen_shunt_g2\[0\]\.d4
*325 gen_shunt_g2\[10\]\.d1
*326 gen_shunt_g2\[10\]\.d2
*327 gen_shunt_g2\[10\]\.d3
*328 gen_shunt_g2\[10\]\.d4
*329 gen_shunt_g2\[11\]\.d1
*330 gen_shunt_g2\[11\]\.d2
*331 gen_shunt_g2\[11\]\.d3
*332 gen_shunt_g2\[11\]\.d4
*333 gen_shunt_g2\[12\]\.d1
*334 gen_shunt_g2\[12\]\.d2
*335 gen_shunt_g2\[12\]\.d3
*336 gen_shunt_g2\[12\]\.d4
*337 gen_shunt_g2\[13\]\.d1
*338 gen_shunt_g2\[13\]\.d2
*339 gen_shunt_g2\[13\]\.d3
*340 gen_shunt_g2\[13\]\.d4
*341 gen_shunt_g2\[14\]\.d1
*342 gen_shunt_g2\[14\]\.d2
*343 gen_shunt_g2\[14\]\.d3
*344 gen_shunt_g2\[14\]\.d4
*345 gen_shunt_g2\[15\]\.d1
*346 gen_shunt_g2\[15\]\.d2
*347 gen_shunt_g2\[15\]\.d3
*348 gen_shunt_g2\[15\]\.d4
*349 gen_shunt_g2\[16\]\.d1
*350 gen_shunt_g2\[16\]\.d2
*351 gen_shunt_g2\[16\]\.d3
*352 gen_shunt_g2\[16\]\.d4
*353 gen_shunt_g2\[17\]\.d1
*354 gen_shunt_g2\[17\]\.d2
*355 gen_shunt_g2\[17\]\.d3
*356 gen_shunt_g2\[17\]\.d4
*357 gen_shunt_g2\[18\]\.d1
*358 gen_shunt_g2\[18\]\.d2
*359 gen_shunt_g2\[18\]\.d3
*360 gen_shunt_g2\[18\]\.d4
*361 gen_shunt_g2\[19\]\.d1
*362 gen_shunt_g2\[19\]\.d2
*363 gen_shunt_g2\[19\]\.d3
*364 gen_shunt_g2\[19\]\.d4
*365 gen_shunt_g2\[1\]\.d1
*366 gen_shunt_g2\[1\]\.d2
*367 gen_shunt_g2\[1\]\.d3
*368 gen_shunt_g2\[1\]\.d4
*369 gen_shunt_g2\[20\]\.d1
*370 gen_shunt_g2\[20\]\.d2
*371 gen_shunt_g2\[20\]\.d3
*372 gen_shunt_g2\[20\]\.d4
*373 gen_shunt_g2\[21\]\.d1
*374 gen_shunt_g2\[21\]\.d2
*375 gen_shunt_g2\[21\]\.d3
*376 gen_shunt_g2\[21\]\.d4
*377 gen_shunt_g2\[22\]\.d1
*378 gen_shunt_g2\[22\]\.d2
*379 gen_shunt_g2\[22\]\.d3
*380 gen_shunt_g2\[22\]\.d4
*381 gen_shunt_g2\[23\]\.d1
*382 gen_shunt_g2\[23\]\.d2
*383 gen_shunt_g2\[23\]\.d3
*384 gen_shunt_g2\[23\]\.d4
*385 gen_shunt_g2\[24\]\.d1
*386 gen_shunt_g2\[24\]\.d2
*387 gen_shunt_g2\[24\]\.d3
*388 gen_shunt_g2\[24\]\.d4
*389 gen_shunt_g2\[25\]\.d1
*390 gen_shunt_g2\[25\]\.d2
*391 gen_shunt_g2\[25\]\.d3
*392 gen_shunt_g2\[25\]\.d4
*393 gen_shunt_g2\[26\]\.d1
*394 gen_shunt_g2\[26\]\.d2
*395 gen_shunt_g2\[26\]\.d3
*396 gen_shunt_g2\[26\]\.d4
*397 gen_shunt_g2\[27\]\.d1
*398 gen_shunt_g2\[27\]\.d2
*399 gen_shunt_g2\[27\]\.d3
*400 gen_shunt_g2\[27\]\.d4
*401 gen_shunt_g2\[28\]\.d1
*402 gen_shunt_g2\[28\]\.d2
*403 gen_shunt_g2\[28\]\.d3
*404 gen_shunt_g2\[28\]\.d4
*405 gen_shunt_g2\[29\]\.d1
*406 gen_shunt_g2\[29\]\.d2
*407 gen_shunt_g2\[29\]\.d3
*408 gen_shunt_g2\[29\]\.d4
*409 gen_shunt_g2\[2\]\.d1
*410 gen_shunt_g2\[2\]\.d2
*411 gen_shunt_g2\[2\]\.d3
*412 gen_shunt_g2\[2\]\.d4
*413 gen_shunt_g2\[30\]\.d1
*414 gen_shunt_g2\[30\]\.d2
*415 gen_shunt_g2\[30\]\.d3
*416 gen_shunt_g2\[30\]\.d4
*417 gen_shunt_g2\[31\]\.d1
*418 gen_shunt_g2\[31\]\.d2
*419 gen_shunt_g2\[31\]\.d3
*420 gen_shunt_g2\[31\]\.d4
*421 gen_shunt_g2\[3\]\.d1
*422 gen_shunt_g2\[3\]\.d2
*423 gen_shunt_g2\[3\]\.d3
*424 gen_shunt_g2\[3\]\.d4
*425 gen_shunt_g2\[4\]\.d1
*426 gen_shunt_g2\[4\]\.d2
*427 gen_shunt_g2\[4\]\.d3
*428 gen_shunt_g2\[4\]\.d4
*429 gen_shunt_g2\[5\]\.d1
*430 gen_shunt_g2\[5\]\.d2
*431 gen_shunt_g2\[5\]\.d3
*432 gen_shunt_g2\[5\]\.d4
*433 gen_shunt_g2\[6\]\.d1
*434 gen_shunt_g2\[6\]\.d2
*435 gen_shunt_g2\[6\]\.d3
*436 gen_shunt_g2\[6\]\.d4
*437 gen_shunt_g2\[7\]\.d1
*438 gen_shunt_g2\[7\]\.d2
*439 gen_shunt_g2\[7\]\.d3
*440 gen_shunt_g2\[7\]\.d4
*441 gen_shunt_g2\[8\]\.d1
*442 gen_shunt_g2\[8\]\.d2
*443 gen_shunt_g2\[8\]\.d3
*444 gen_shunt_g2\[8\]\.d4
*445 gen_shunt_g2\[9\]\.d1
*446 gen_shunt_g2\[9\]\.d2
*447 gen_shunt_g2\[9\]\.d3
*448 gen_shunt_g2\[9\]\.d4
*449 gen_shunt_g3\[0\]\.d1
*450 gen_shunt_g3\[0\]\.d2
*451 gen_shunt_g3\[0\]\.d3
*452 gen_shunt_g3\[0\]\.d4
*453 gen_shunt_g3\[10\]\.d1
*454 gen_shunt_g3\[10\]\.d2
*455 gen_shunt_g3\[10\]\.d3
*456 gen_shunt_g3\[10\]\.d4
*457 gen_shunt_g3\[11\]\.d1
*458 gen_shunt_g3\[11\]\.d2
*459 gen_shunt_g3\[11\]\.d3
*460 gen_shunt_g3\[11\]\.d4
*461 gen_shunt_g3\[12\]\.d1
*462 gen_shunt_g3\[12\]\.d2
*463 gen_shunt_g3\[12\]\.d3
*464 gen_shunt_g3\[12\]\.d4
*465 gen_shunt_g3\[13\]\.d1
*466 gen_shunt_g3\[13\]\.d2
*467 gen_shunt_g3\[13\]\.d3
*468 gen_shunt_g3\[13\]\.d4
*469 gen_shunt_g3\[14\]\.d1
*470 gen_shunt_g3\[14\]\.d2
*471 gen_shunt_g3\[14\]\.d3
*472 gen_shunt_g3\[14\]\.d4
*473 gen_shunt_g3\[15\]\.d1
*474 gen_shunt_g3\[15\]\.d2
*475 gen_shunt_g3\[15\]\.d3
*476 gen_shunt_g3\[15\]\.d4
*477 gen_shunt_g3\[1\]\.d1
*478 gen_shunt_g3\[1\]\.d2
*479 gen_shunt_g3\[1\]\.d3
*480 gen_shunt_g3\[1\]\.d4
*481 gen_shunt_g3\[2\]\.d1
*482 gen_shunt_g3\[2\]\.d2
*483 gen_shunt_g3\[2\]\.d3
*484 gen_shunt_g3\[2\]\.d4
*485 gen_shunt_g3\[3\]\.d1
*486 gen_shunt_g3\[3\]\.d2
*487 gen_shunt_g3\[3\]\.d3
*488 gen_shunt_g3\[3\]\.d4
*489 gen_shunt_g3\[4\]\.d1
*490 gen_shunt_g3\[4\]\.d2
*491 gen_shunt_g3\[4\]\.d3
*492 gen_shunt_g3\[4\]\.d4
*493 gen_shunt_g3\[5\]\.d1
*494 gen_shunt_g3\[5\]\.d2
*495 gen_shunt_g3\[5\]\.d3
*496 gen_shunt_g3\[5\]\.d4
*497 gen_shunt_g3\[6\]\.d1
*498 gen_shunt_g3\[6\]\.d2
*499 gen_shunt_g3\[6\]\.d3
*500 gen_shunt_g3\[6\]\.d4
*501 gen_shunt_g3\[7\]\.d1
*502 gen_shunt_g3\[7\]\.d2
*503 gen_shunt_g3\[7\]\.d3
*504 gen_shunt_g3\[7\]\.d4
*505 gen_shunt_g3\[8\]\.d1
*506 gen_shunt_g3\[8\]\.d2
*507 gen_shunt_g3\[8\]\.d3
*508 gen_shunt_g3\[8\]\.d4
*509 gen_shunt_g3\[9\]\.d1
*510 gen_shunt_g3\[9\]\.d2
*511 gen_shunt_g3\[9\]\.d3
*512 gen_shunt_g3\[9\]\.d4
*513 gen_shunt_g4\[0\]\.d1
*514 gen_shunt_g4\[0\]\.d2
*515 gen_shunt_g4\[0\]\.d3
*516 gen_shunt_g4\[0\]\.d4
*517 gen_shunt_g4\[1\]\.d1
*518 gen_shunt_g4\[1\]\.d2
*519 gen_shunt_g4\[1\]\.d3
*520 gen_shunt_g4\[1\]\.d4
*521 gen_shunt_g4\[2\]\.d1
*522 gen_shunt_g4\[2\]\.d2
*523 gen_shunt_g4\[2\]\.d3
*524 gen_shunt_g4\[2\]\.d4
*525 gen_shunt_g4\[3\]\.d1
*526 gen_shunt_g4\[3\]\.d2
*527 gen_shunt_g4\[3\]\.d3
*528 gen_shunt_g4\[3\]\.d4
*529 gen_shunt_g4\[4\]\.d1
*530 gen_shunt_g4\[4\]\.d2
*531 gen_shunt_g4\[4\]\.d3
*532 gen_shunt_g4\[4\]\.d4
*533 gen_shunt_g4\[5\]\.d1
*534 gen_shunt_g4\[5\]\.d2
*535 gen_shunt_g4\[5\]\.d3
*536 gen_shunt_g4\[5\]\.d4
*537 gen_shunt_g4\[6\]\.d1
*538 gen_shunt_g4\[6\]\.d2
*539 gen_shunt_g4\[6\]\.d3
*540 gen_shunt_g4\[6\]\.d4
*541 gen_shunt_g4\[7\]\.d1
*542 gen_shunt_g4\[7\]\.d2
*543 gen_shunt_g4\[7\]\.d3
*544 gen_shunt_g4\[7\]\.d4
*545 gen_shunt_g5\[0\]\.d1
*546 gen_shunt_g5\[0\]\.d2
*547 gen_shunt_g5\[1\]\.d1
*548 gen_shunt_g5\[1\]\.d2
*549 gen_shunt_g5\[2\]\.d1
*550 gen_shunt_g5\[2\]\.d2
*551 gen_shunt_g5\[3\]\.d1
*552 gen_shunt_g5\[3\]\.d2
*553 gen_shunt_g6\[0\]\.d1
*554 gen_shunt_g6\[0\]\.d2
*555 gen_shunt_g6\[0\]\.d3
*556 gen_shunt_g6\[0\]\.d4
*557 gen_shunt_g6\[1\]\.d1
*558 gen_shunt_g6\[1\]\.d2
*559 gen_shunt_g6\[1\]\.d3
*560 gen_shunt_g6\[1\]\.d4
*561 gen_shunt_g7\[0\]\.d1
*562 gen_shunt_g7\[0\]\.d2
*563 gen_shunt_gy_g1\[0\]\.d1
*564 gen_shunt_gy_g1\[0\]\.d2
*565 gen_shunt_gy_g1\[0\]\.d3
*566 gen_shunt_gy_g1\[0\]\.d4
*567 gen_shunt_gy_g1\[1\]\.d1
*568 gen_shunt_gy_g1\[1\]\.d2
*569 gen_shunt_gy_g1\[1\]\.d3
*570 gen_shunt_gy_g1\[1\]\.d4
*571 gen_shunt_gy_g1\[2\]\.d1
*572 gen_shunt_gy_g1\[2\]\.d2
*573 gen_shunt_gy_g1\[2\]\.d3
*574 gen_shunt_gy_g1\[2\]\.d4
*575 gen_shunt_gy_g1\[3\]\.d1
*576 gen_shunt_gy_g1\[3\]\.d2
*577 gen_shunt_gy_g1\[3\]\.d3
*578 gen_shunt_gy_g1\[3\]\.d4
*579 gen_shunt_gy_g1\[4\]\.d1
*580 gen_shunt_gy_g1\[4\]\.d2
*581 gen_shunt_gy_g1\[4\]\.d3
*582 gen_shunt_gy_g1\[4\]\.d4
*583 gen_shunt_gy_g1\[5\]\.d1
*584 gen_shunt_gy_g1\[5\]\.d2
*585 gen_shunt_gy_g1\[5\]\.d3
*586 gen_shunt_gy_g1\[5\]\.d4
*587 gen_shunt_gy_g1\[6\]\.d1
*588 gen_shunt_gy_g1\[6\]\.d2
*589 gen_shunt_gy_g1\[6\]\.d3
*590 gen_shunt_gy_g1\[6\]\.d4
*591 gen_shunt_gy_g1\[7\]\.d1
*592 gen_shunt_gy_g1\[7\]\.d2
*593 gen_shunt_gy_g1\[7\]\.d3
*594 gen_shunt_gy_g1\[7\]\.d4
*595 gen_shunt_gy_g2\[0\]\.d1
*596 gen_shunt_gy_g2\[0\]\.d2
*597 gen_shunt_gy_g2\[0\]\.d3
*598 gen_shunt_gy_g2\[0\]\.d4
*599 gen_shunt_gy_g2\[1\]\.d1
*600 gen_shunt_gy_g2\[1\]\.d2
*601 gen_shunt_gy_g2\[1\]\.d3
*602 gen_shunt_gy_g2\[1\]\.d4
*603 gen_shunt_gy_g2\[2\]\.d1
*604 gen_shunt_gy_g2\[2\]\.d2
*605 gen_shunt_gy_g2\[2\]\.d3
*606 gen_shunt_gy_g2\[2\]\.d4
*607 gen_shunt_gy_g2\[3\]\.d1
*608 gen_shunt_gy_g2\[3\]\.d2
*609 gen_shunt_gy_g2\[3\]\.d3
*610 gen_shunt_gy_g2\[3\]\.d4
*611 gen_shunt_gy_g3\[0\]\.d1
*612 gen_shunt_gy_g3\[0\]\.d2
*613 gen_shunt_gy_g3\[1\]\.d1
*614 gen_shunt_gy_g3\[1\]\.d2
*615 gen_shunt_gy_g4\[0\]\.d1
*616 gen_shunt_gy_g4\[0\]\.d2
*617 gen_shunt_gygy_g1\[0\]\.d1
*618 gen_shunt_gygy_g1\[0\]\.d2
*619 gen_shunt_gygy_g1\[0\]\.d3
*620 gen_shunt_gygy_g1\[0\]\.d4
*621 gen_shunt_gygy_g1\[10\]\.d1
*622 gen_shunt_gygy_g1\[10\]\.d2
*623 gen_shunt_gygy_g1\[10\]\.d3
*624 gen_shunt_gygy_g1\[10\]\.d4
*625 gen_shunt_gygy_g1\[11\]\.d1
*626 gen_shunt_gygy_g1\[11\]\.d2
*627 gen_shunt_gygy_g1\[11\]\.d3
*628 gen_shunt_gygy_g1\[11\]\.d4
*629 gen_shunt_gygy_g1\[12\]\.d1
*630 gen_shunt_gygy_g1\[12\]\.d2
*631 gen_shunt_gygy_g1\[12\]\.d3
*632 gen_shunt_gygy_g1\[12\]\.d4
*633 gen_shunt_gygy_g1\[13\]\.d1
*634 gen_shunt_gygy_g1\[13\]\.d2
*635 gen_shunt_gygy_g1\[13\]\.d3
*636 gen_shunt_gygy_g1\[13\]\.d4
*637 gen_shunt_gygy_g1\[14\]\.d1
*638 gen_shunt_gygy_g1\[14\]\.d2
*639 gen_shunt_gygy_g1\[14\]\.d3
*640 gen_shunt_gygy_g1\[14\]\.d4
*641 gen_shunt_gygy_g1\[15\]\.d1
*642 gen_shunt_gygy_g1\[15\]\.d2
*643 gen_shunt_gygy_g1\[15\]\.d3
*644 gen_shunt_gygy_g1\[15\]\.d4
*645 gen_shunt_gygy_g1\[1\]\.d1
*646 gen_shunt_gygy_g1\[1\]\.d2
*647 gen_shunt_gygy_g1\[1\]\.d3
*648 gen_shunt_gygy_g1\[1\]\.d4
*649 gen_shunt_gygy_g1\[2\]\.d1
*650 gen_shunt_gygy_g1\[2\]\.d2
*651 gen_shunt_gygy_g1\[2\]\.d3
*652 gen_shunt_gygy_g1\[2\]\.d4
*653 gen_shunt_gygy_g1\[3\]\.d1
*654 gen_shunt_gygy_g1\[3\]\.d2
*655 gen_shunt_gygy_g1\[3\]\.d3
*656 gen_shunt_gygy_g1\[3\]\.d4
*657 gen_shunt_gygy_g1\[4\]\.d1
*658 gen_shunt_gygy_g1\[4\]\.d2
*659 gen_shunt_gygy_g1\[4\]\.d3
*660 gen_shunt_gygy_g1\[4\]\.d4
*661 gen_shunt_gygy_g1\[5\]\.d1
*662 gen_shunt_gygy_g1\[5\]\.d2
*663 gen_shunt_gygy_g1\[5\]\.d3
*664 gen_shunt_gygy_g1\[5\]\.d4
*665 gen_shunt_gygy_g1\[6\]\.d1
*666 gen_shunt_gygy_g1\[6\]\.d2
*667 gen_shunt_gygy_g1\[6\]\.d3
*668 gen_shunt_gygy_g1\[6\]\.d4
*669 gen_shunt_gygy_g1\[7\]\.d1
*670 gen_shunt_gygy_g1\[7\]\.d2
*671 gen_shunt_gygy_g1\[7\]\.d3
*672 gen_shunt_gygy_g1\[7\]\.d4
*673 gen_shunt_gygy_g1\[8\]\.d1
*674 gen_shunt_gygy_g1\[8\]\.d2
*675 gen_shunt_gygy_g1\[8\]\.d3
*676 gen_shunt_gygy_g1\[8\]\.d4
*677 gen_shunt_gygy_g1\[9\]\.d1
*678 gen_shunt_gygy_g1\[9\]\.d2
*679 gen_shunt_gygy_g1\[9\]\.d3
*680 gen_shunt_gygy_g1\[9\]\.d4
*681 gen_shunt_gygy_g2\[0\]\.d1
*682 gen_shunt_gygy_g2\[0\]\.d2
*683 gen_shunt_gygy_g2\[0\]\.d3
*684 gen_shunt_gygy_g2\[0\]\.d4
*685 gen_shunt_gygy_g2\[1\]\.d1
*686 gen_shunt_gygy_g2\[1\]\.d2
*687 gen_shunt_gygy_g2\[1\]\.d3
*688 gen_shunt_gygy_g2\[1\]\.d4
*689 gen_shunt_gygy_g2\[2\]\.d1
*690 gen_shunt_gygy_g2\[2\]\.d2
*691 gen_shunt_gygy_g2\[2\]\.d3
*692 gen_shunt_gygy_g2\[2\]\.d4
*693 gen_shunt_gygy_g2\[3\]\.d1
*694 gen_shunt_gygy_g2\[3\]\.d2
*695 gen_shunt_gygy_g2\[3\]\.d3
*696 gen_shunt_gygy_g2\[3\]\.d4
*697 gen_shunt_gygy_g2\[4\]\.d1
*698 gen_shunt_gygy_g2\[4\]\.d2
*699 gen_shunt_gygy_g2\[4\]\.d3
*700 gen_shunt_gygy_g2\[4\]\.d4
*701 gen_shunt_gygy_g2\[5\]\.d1
*702 gen_shunt_gygy_g2\[5\]\.d2
*703 gen_shunt_gygy_g2\[5\]\.d3
*704 gen_shunt_gygy_g2\[5\]\.d4
*705 gen_shunt_gygy_g2\[6\]\.d1
*706 gen_shunt_gygy_g2\[6\]\.d2
*707 gen_shunt_gygy_g2\[6\]\.d3
*708 gen_shunt_gygy_g2\[6\]\.d4
*709 gen_shunt_gygy_g2\[7\]\.d1
*710 gen_shunt_gygy_g2\[7\]\.d2
*711 gen_shunt_gygy_g2\[7\]\.d3
*712 gen_shunt_gygy_g2\[7\]\.d4
*713 gen_shunt_gygy_g3\[0\]\.d1
*714 gen_shunt_gygy_g3\[0\]\.d2
*715 gen_shunt_gygy_g3\[1\]\.d1
*716 gen_shunt_gygy_g3\[1\]\.d2
*717 gen_shunt_gygy_g3\[2\]\.d1
*718 gen_shunt_gygy_g3\[2\]\.d2
*719 gen_shunt_gygy_g3\[3\]\.d1
*720 gen_shunt_gygy_g3\[3\]\.d2
*721 gen_shunt_gygy_g4\[0\]\.d1
*722 gen_shunt_gygy_g4\[0\]\.d2
*723 gen_shunt_gygy_g4\[0\]\.d3
*724 gen_shunt_gygy_g4\[0\]\.d4
*725 gen_shunt_gygy_g4\[1\]\.d1
*726 gen_shunt_gygy_g4\[1\]\.d2
*727 gen_shunt_gygy_g4\[1\]\.d3
*728 gen_shunt_gygy_g4\[1\]\.d4
*729 gen_shunt_gygy_g5\[0\]\.d1
*730 gen_shunt_gygy_g5\[0\]\.d2
*731 FILLER_0_104
*732 FILLER_0_107
*733 FILLER_0_139
*734 FILLER_0_142
*735 FILLER_0_174
*736 FILLER_0_177
*737 FILLER_0_2
*738 FILLER_0_209
*739 FILLER_0_212
*740 FILLER_0_244
*741 FILLER_0_247
*742 FILLER_0_27
*743 FILLER_0_279
*744 FILLER_0_282
*745 FILLER_0_314
*746 FILLER_0_317
*747 FILLER_0_342
*748 FILLER_0_352
*749 FILLER_0_37
*750 FILLER_0_377
*751 FILLER_0_387
*752 FILLER_0_412
*753 FILLER_0_422
*754 FILLER_0_447
*755 FILLER_0_457
*756 FILLER_0_482
*757 FILLER_0_492
*758 FILLER_0_517
*759 FILLER_0_527
*760 FILLER_0_552
*761 FILLER_0_562
*762 FILLER_0_587
*763 FILLER_0_597
*764 FILLER_0_622
*765 FILLER_0_632
*766 FILLER_0_657
*767 FILLER_0_667
*768 FILLER_0_676
*769 FILLER_0_686
*770 FILLER_0_69
*771 FILLER_0_72
*772 FILLER_10_105
*773 FILLER_10_108
*774 FILLER_10_124
*775 FILLER_10_150
*776 FILLER_10_176
*777 FILLER_10_179
*778 FILLER_10_195
*779 FILLER_10_199
*780 FILLER_10_2
*781 FILLER_10_201
*782 FILLER_10_226
*783 FILLER_10_242
*784 FILLER_10_246
*785 FILLER_10_250
*786 FILLER_10_266
*787 FILLER_10_292
*788 FILLER_10_318
*789 FILLER_10_321
*790 FILLER_10_34
*791 FILLER_10_346
*792 FILLER_10_37
*793 FILLER_10_372
*794 FILLER_10_388
*795 FILLER_10_392
*796 FILLER_10_417
*797 FILLER_10_443
*798 FILLER_10_459
*799 FILLER_10_463
*800 FILLER_10_488
*801 FILLER_10_504
*802 FILLER_10_506
*803 FILLER_10_53
*804 FILLER_10_531
*805 FILLER_10_534
*806 FILLER_10_559
*807 FILLER_10_585
*808 FILLER_10_595
*809 FILLER_10_605
*810 FILLER_10_630
*811 FILLER_10_656
*812 FILLER_10_666
*813 FILLER_10_676
*814 FILLER_10_684
*815 FILLER_10_79
*816 FILLER_11_115
*817 FILLER_11_141
*818 FILLER_11_144
*819 FILLER_11_160
*820 FILLER_11_18
*821 FILLER_11_186
*822 FILLER_11_2
*823 FILLER_11_212
*824 FILLER_11_215
*825 FILLER_11_240
*826 FILLER_11_256
*827 FILLER_11_258
*828 FILLER_11_283
*829 FILLER_11_286
*830 FILLER_11_294
*831 FILLER_11_296
*832 FILLER_11_321
*833 FILLER_11_347
*834 FILLER_11_357
*835 FILLER_11_382
*836 FILLER_11_408
*837 FILLER_11_424
*838 FILLER_11_428
*839 FILLER_11_44
*840 FILLER_11_453
*841 FILLER_11_479
*842 FILLER_11_495
*843 FILLER_11_499
*844 FILLER_11_507
*845 FILLER_11_532
*846 FILLER_11_558
*847 FILLER_11_566
*848 FILLER_11_570
*849 FILLER_11_595
*850 FILLER_11_621
*851 FILLER_11_631
*852 FILLER_11_641
*853 FILLER_11_666
*854 FILLER_11_682
*855 FILLER_11_686
*856 FILLER_11_70
*857 FILLER_11_73
*858 FILLER_11_89
*859 FILLER_12_105
*860 FILLER_12_108
*861 FILLER_12_124
*862 FILLER_12_150
*863 FILLER_12_176
*864 FILLER_12_179
*865 FILLER_12_187
*866 FILLER_12_191
*867 FILLER_12_2
*868 FILLER_12_216
*869 FILLER_12_242
*870 FILLER_12_246
*871 FILLER_12_250
*872 FILLER_12_266
*873 FILLER_12_292
*874 FILLER_12_318
*875 FILLER_12_321
*876 FILLER_12_34
*877 FILLER_12_346
*878 FILLER_12_37
*879 FILLER_12_372
*880 FILLER_12_388
*881 FILLER_12_392
*882 FILLER_12_417
*883 FILLER_12_443
*884 FILLER_12_459
*885 FILLER_12_463
*886 FILLER_12_479
*887 FILLER_12_505
*888 FILLER_12_53
*889 FILLER_12_531
*890 FILLER_12_534
*891 FILLER_12_559
*892 FILLER_12_585
*893 FILLER_12_595
*894 FILLER_12_605
*895 FILLER_12_630
*896 FILLER_12_656
*897 FILLER_12_672
*898 FILLER_12_676
*899 FILLER_12_684
*900 FILLER_12_79
*901 FILLER_13_115
*902 FILLER_13_141
*903 FILLER_13_144
*904 FILLER_13_18
*905 FILLER_13_184
*906 FILLER_13_2
*907 FILLER_13_210
*908 FILLER_13_212
*909 FILLER_13_215
*910 FILLER_13_240
*911 FILLER_13_266
*912 FILLER_13_282
*913 FILLER_13_286
*914 FILLER_13_294
*915 FILLER_13_296
*916 FILLER_13_321
*917 FILLER_13_347
*918 FILLER_13_357
*919 FILLER_13_382
*920 FILLER_13_408
*921 FILLER_13_424
*922 FILLER_13_428
*923 FILLER_13_44
*924 FILLER_13_453
*925 FILLER_13_469
*926 FILLER_13_471
*927 FILLER_13_496
*928 FILLER_13_499
*929 FILLER_13_507
*930 FILLER_13_532
*931 FILLER_13_558
*932 FILLER_13_566
*933 FILLER_13_570
*934 FILLER_13_595
*935 FILLER_13_621
*936 FILLER_13_631
*937 FILLER_13_641
*938 FILLER_13_666
*939 FILLER_13_682
*940 FILLER_13_686
*941 FILLER_13_70
*942 FILLER_13_73
*943 FILLER_13_89
*944 FILLER_14_105
*945 FILLER_14_108
*946 FILLER_14_124
*947 FILLER_14_150
*948 FILLER_14_176
*949 FILLER_14_179
*950 FILLER_14_2
*951 FILLER_14_211
*952 FILLER_14_237
*953 FILLER_14_245
*954 FILLER_14_247
*955 FILLER_14_250
*956 FILLER_14_275
*957 FILLER_14_291
*958 FILLER_14_293
*959 FILLER_14_318
*960 FILLER_14_321
*961 FILLER_14_34
*962 FILLER_14_346
*963 FILLER_14_37
*964 FILLER_14_372
*965 FILLER_14_388
*966 FILLER_14_392
*967 FILLER_14_417
*968 FILLER_14_443
*969 FILLER_14_459
*970 FILLER_14_463
*971 FILLER_14_479
*972 FILLER_14_505
*973 FILLER_14_53
*974 FILLER_14_531
*975 FILLER_14_534
*976 FILLER_14_559
*977 FILLER_14_585
*978 FILLER_14_595
*979 FILLER_14_605
*980 FILLER_14_630
*981 FILLER_14_656
*982 FILLER_14_672
*983 FILLER_14_676
*984 FILLER_14_684
*985 FILLER_14_79
*986 FILLER_15_115
*987 FILLER_15_141
*988 FILLER_15_144
*989 FILLER_15_160
*990 FILLER_15_18
*991 FILLER_15_185
*992 FILLER_15_2
*993 FILLER_15_211
*994 FILLER_15_215
*995 FILLER_15_240
*996 FILLER_15_266
*997 FILLER_15_282
*998 FILLER_15_286
*999 FILLER_15_294
*1000 FILLER_15_296
*1001 FILLER_15_321
*1002 FILLER_15_347
*1003 FILLER_15_357
*1004 FILLER_15_382
*1005 FILLER_15_408
*1006 FILLER_15_424
*1007 FILLER_15_428
*1008 FILLER_15_44
*1009 FILLER_15_453
*1010 FILLER_15_479
*1011 FILLER_15_495
*1012 FILLER_15_499
*1013 FILLER_15_507
*1014 FILLER_15_532
*1015 FILLER_15_558
*1016 FILLER_15_566
*1017 FILLER_15_570
*1018 FILLER_15_595
*1019 FILLER_15_621
*1020 FILLER_15_637
*1021 FILLER_15_641
*1022 FILLER_15_666
*1023 FILLER_15_682
*1024 FILLER_15_686
*1025 FILLER_15_70
*1026 FILLER_15_73
*1027 FILLER_15_89
*1028 FILLER_16_105
*1029 FILLER_16_108
*1030 FILLER_16_124
*1031 FILLER_16_150
*1032 FILLER_16_176
*1033 FILLER_16_179
*1034 FILLER_16_2
*1035 FILLER_16_211
*1036 FILLER_16_215
*1037 FILLER_16_241
*1038 FILLER_16_245
*1039 FILLER_16_247
*1040 FILLER_16_250
*1041 FILLER_16_275
*1042 FILLER_16_301
*1043 FILLER_16_317
*1044 FILLER_16_321
*1045 FILLER_16_34
*1046 FILLER_16_346
*1047 FILLER_16_37
*1048 FILLER_16_372
*1049 FILLER_16_388
*1050 FILLER_16_392
*1051 FILLER_16_417
*1052 FILLER_16_443
*1053 FILLER_16_459
*1054 FILLER_16_463
*1055 FILLER_16_488
*1056 FILLER_16_504
*1057 FILLER_16_506
*1058 FILLER_16_53
*1059 FILLER_16_531
*1060 FILLER_16_534
*1061 FILLER_16_559
*1062 FILLER_16_585
*1063 FILLER_16_595
*1064 FILLER_16_605
*1065 FILLER_16_630
*1066 FILLER_16_656
*1067 FILLER_16_672
*1068 FILLER_16_676
*1069 FILLER_16_684
*1070 FILLER_16_79
*1071 FILLER_17_115
*1072 FILLER_17_141
*1073 FILLER_17_144
*1074 FILLER_17_160
*1075 FILLER_17_18
*1076 FILLER_17_186
*1077 FILLER_17_2
*1078 FILLER_17_212
*1079 FILLER_17_215
*1080 FILLER_17_243
*1081 FILLER_17_269
*1082 FILLER_17_277
*1083 FILLER_17_281
*1084 FILLER_17_283
*1085 FILLER_17_286
*1086 FILLER_17_311
*1087 FILLER_17_337
*1088 FILLER_17_353
*1089 FILLER_17_357
*1090 FILLER_17_382
*1091 FILLER_17_408
*1092 FILLER_17_424
*1093 FILLER_17_428
*1094 FILLER_17_44
*1095 FILLER_17_453
*1096 FILLER_17_479
*1097 FILLER_17_495
*1098 FILLER_17_499
*1099 FILLER_17_507
*1100 FILLER_17_509
*1101 FILLER_17_534
*1102 FILLER_17_560
*1103 FILLER_17_570
*1104 FILLER_17_595
*1105 FILLER_17_621
*1106 FILLER_17_637
*1107 FILLER_17_641
*1108 FILLER_17_666
*1109 FILLER_17_682
*1110 FILLER_17_686
*1111 FILLER_17_70
*1112 FILLER_17_73
*1113 FILLER_17_89
*1114 FILLER_18_105
*1115 FILLER_18_108
*1116 FILLER_18_124
*1117 FILLER_18_150
*1118 FILLER_18_176
*1119 FILLER_18_179
*1120 FILLER_18_187
*1121 FILLER_18_191
*1122 FILLER_18_193
*1123 FILLER_18_2
*1124 FILLER_18_218
*1125 FILLER_18_244
*1126 FILLER_18_250
*1127 FILLER_18_275
*1128 FILLER_18_301
*1129 FILLER_18_317
*1130 FILLER_18_321
*1131 FILLER_18_34
*1132 FILLER_18_346
*1133 FILLER_18_37
*1134 FILLER_18_372
*1135 FILLER_18_388
*1136 FILLER_18_392
*1137 FILLER_18_417
*1138 FILLER_18_443
*1139 FILLER_18_459
*1140 FILLER_18_463
*1141 FILLER_18_479
*1142 FILLER_18_505
*1143 FILLER_18_53
*1144 FILLER_18_531
*1145 FILLER_18_534
*1146 FILLER_18_559
*1147 FILLER_18_585
*1148 FILLER_18_601
*1149 FILLER_18_605
*1150 FILLER_18_630
*1151 FILLER_18_656
*1152 FILLER_18_672
*1153 FILLER_18_676
*1154 FILLER_18_684
*1155 FILLER_18_79
*1156 FILLER_19_115
*1157 FILLER_19_141
*1158 FILLER_19_144
*1159 FILLER_19_160
*1160 FILLER_19_18
*1161 FILLER_19_186
*1162 FILLER_19_2
*1163 FILLER_19_212
*1164 FILLER_19_215
*1165 FILLER_19_223
*1166 FILLER_19_249
*1167 FILLER_19_275
*1168 FILLER_19_283
*1169 FILLER_19_286
*1170 FILLER_19_311
*1171 FILLER_19_337
*1172 FILLER_19_353
*1173 FILLER_19_357
*1174 FILLER_19_382
*1175 FILLER_19_408
*1176 FILLER_19_424
*1177 FILLER_19_428
*1178 FILLER_19_44
*1179 FILLER_19_453
*1180 FILLER_19_461
*1181 FILLER_19_489
*1182 FILLER_19_499
*1183 FILLER_19_507
*1184 FILLER_19_533
*1185 FILLER_19_559