*SPEF "ieee 1481-1999"
*DESIGN "caparray_s1"
*DATE "11:11:11 Fri 11 11, 1111"
*VENDOR "OpenRCX"
*PROGRAM "Parallel Extraction"
*VERSION "1.0"
*DESIGN_FLOW "NAME_SCOPE LOCAL" "PIN_CAP NONE"
*DIVIDER /
*DELIMITER :
*BUS_DELIMITER []
*T_UNIT 1 NS
*C_UNIT 1 PF
*R_UNIT 1 OHM
*L_UNIT 1 HENRY

*NAME_MAP
*1 cap_series_gygyn
*2 cap_series_gygyp
*3 cap_series_gyn
*4 cap_series_gyp
*5 cap_shunt_gyn
*6 cap_shunt_gyp
*7 cap_shunt_n
*8 cap_shunt_p
*9 tune_series_gy[0]
*10 tune_series_gy[1]
*11 tune_series_gy[2]
*12 tune_series_gy[3]
*13 tune_series_gy[4]
*14 tune_series_gy[5]
*15 tune_series_gygy[0]
*16 tune_series_gygy[1]
*17 tune_series_gygy[2]
*18 tune_series_gygy[3]
*19 tune_series_gygy[4]
*20 tune_series_gygy[5]
*21 tune_shunt[0]
*22 tune_shunt[1]
*23 tune_shunt[2]
*24 tune_shunt[3]
*25 tune_shunt[4]
*26 tune_shunt[5]
*27 tune_shunt[6]
*28 tune_shunt[7]
*29 tune_shunt_gy[0]
*30 tune_shunt_gy[1]
*31 tune_shunt_gy[2]
*32 tune_shunt_gy[3]
*33 tune_shunt_gy[4]
*34 tune_shunt_gy[5]
*35 tune_shunt_gy[6]
*38 gen_series_gy_g1\[0\]\.d1
*39 gen_series_gy_g1\[0\]\.d2
*40 gen_series_gy_g1\[0\]\.d3
*41 gen_series_gy_g1\[0\]\.d4
*42 gen_series_gy_g1\[10\]\.d1
*43 gen_series_gy_g1\[10\]\.d2
*44 gen_series_gy_g1\[10\]\.d3
*45 gen_series_gy_g1\[10\]\.d4
*46 gen_series_gy_g1\[11\]\.d1
*47 gen_series_gy_g1\[11\]\.d2
*48 gen_series_gy_g1\[11\]\.d3
*49 gen_series_gy_g1\[11\]\.d4
*50 gen_series_gy_g1\[12\]\.d1
*51 gen_series_gy_g1\[12\]\.d2
*52 gen_series_gy_g1\[12\]\.d3
*53 gen_series_gy_g1\[12\]\.d4
*54 gen_series_gy_g1\[13\]\.d1
*55 gen_series_gy_g1\[13\]\.d2
*56 gen_series_gy_g1\[13\]\.d3
*57 gen_series_gy_g1\[13\]\.d4
*58 gen_series_gy_g1\[14\]\.d1
*59 gen_series_gy_g1\[14\]\.d2
*60 gen_series_gy_g1\[14\]\.d3
*61 gen_series_gy_g1\[14\]\.d4
*62 gen_series_gy_g1\[15\]\.d1
*63 gen_series_gy_g1\[15\]\.d2
*64 gen_series_gy_g1\[15\]\.d3
*65 gen_series_gy_g1\[15\]\.d4
*66 gen_series_gy_g1\[1\]\.d1
*67 gen_series_gy_g1\[1\]\.d2
*68 gen_series_gy_g1\[1\]\.d3
*69 gen_series_gy_g1\[1\]\.d4
*70 gen_series_gy_g1\[2\]\.d1
*71 gen_series_gy_g1\[2\]\.d2
*72 gen_series_gy_g1\[2\]\.d3
*73 gen_series_gy_g1\[2\]\.d4
*74 gen_series_gy_g1\[3\]\.d1
*75 gen_series_gy_g1\[3\]\.d2
*76 gen_series_gy_g1\[3\]\.d3
*77 gen_series_gy_g1\[3\]\.d4
*78 gen_series_gy_g1\[4\]\.d1
*79 gen_series_gy_g1\[4\]\.d2
*80 gen_series_gy_g1\[4\]\.d3
*81 gen_series_gy_g1\[4\]\.d4
*82 gen_series_gy_g1\[5\]\.d1
*83 gen_series_gy_g1\[5\]\.d2
*84 gen_series_gy_g1\[5\]\.d3
*85 gen_series_gy_g1\[5\]\.d4
*86 gen_series_gy_g1\[6\]\.d1
*87 gen_series_gy_g1\[6\]\.d2
*88 gen_series_gy_g1\[6\]\.d3
*89 gen_series_gy_g1\[6\]\.d4
*90 gen_series_gy_g1\[7\]\.d1
*91 gen_series_gy_g1\[7\]\.d2
*92 gen_series_gy_g1\[7\]\.d3
*93 gen_series_gy_g1\[7\]\.d4
*94 gen_series_gy_g1\[8\]\.d1
*95 gen_series_gy_g1\[8\]\.d2
*96 gen_series_gy_g1\[8\]\.d3
*97 gen_series_gy_g1\[8\]\.d4
*98 gen_series_gy_g1\[9\]\.d1
*99 gen_series_gy_g1\[9\]\.d2
*100 gen_series_gy_g1\[9\]\.d3
*101 gen_series_gy_g1\[9\]\.d4
*102 gen_series_gy_g2\[0\]\.d1
*103 gen_series_gy_g2\[0\]\.d2
*104 gen_series_gy_g2\[1\]\.d1
*105 gen_series_gy_g2\[1\]\.d2
*106 gen_series_gy_g2\[2\]\.d1
*107 gen_series_gy_g2\[2\]\.d2
*108 gen_series_gy_g2\[3\]\.d1
*109 gen_series_gy_g2\[3\]\.d2
*110 gen_series_gy_g2\[4\]\.d1
*111 gen_series_gy_g2\[4\]\.d2
*112 gen_series_gy_g2\[5\]\.d1
*113 gen_series_gy_g2\[5\]\.d2
*114 gen_series_gy_g2\[6\]\.d1
*115 gen_series_gy_g2\[6\]\.d2
*116 gen_series_gy_g2\[7\]\.d1
*117 gen_series_gy_g2\[7\]\.d2
*118 gen_series_gy_g3\[0\]\.d1
*119 gen_series_gy_g3\[0\]\.d2
*120 gen_series_gy_g3\[1\]\.d1
*121 gen_series_gy_g3\[1\]\.d2
*122 gen_series_gy_g3\[2\]\.d1
*123 gen_series_gy_g3\[2\]\.d2
*124 gen_series_gy_g3\[3\]\.d1
*125 gen_series_gy_g3\[3\]\.d2
*126 gen_series_gy_g4\[0\]\.d1
*127 gen_series_gy_g4\[0\]\.d2
*128 gen_series_gy_g4\[1\]\.d1
*129 gen_series_gy_g4\[1\]\.d2
*130 gen_series_gy_g5\[0\]\.d1
*131 gen_series_gy_g5\[0\]\.d2
*132 gen_shunt_g1\[0\]\.d1
*133 gen_shunt_g1\[0\]\.d2
*134 gen_shunt_g1\[10\]\.d1
*135 gen_shunt_g1\[10\]\.d2
*136 gen_shunt_g1\[11\]\.d1
*137 gen_shunt_g1\[11\]\.d2
*138 gen_shunt_g1\[12\]\.d1
*139 gen_shunt_g1\[12\]\.d2
*140 gen_shunt_g1\[13\]\.d1
*141 gen_shunt_g1\[13\]\.d2
*142 gen_shunt_g1\[14\]\.d1
*143 gen_shunt_g1\[14\]\.d2
*144 gen_shunt_g1\[15\]\.d1
*145 gen_shunt_g1\[15\]\.d2
*146 gen_shunt_g1\[16\]\.d1
*147 gen_shunt_g1\[16\]\.d2
*148 gen_shunt_g1\[17\]\.d1
*149 gen_shunt_g1\[17\]\.d2
*150 gen_shunt_g1\[18\]\.d1
*151 gen_shunt_g1\[18\]\.d2
*152 gen_shunt_g1\[19\]\.d1
*153 gen_shunt_g1\[19\]\.d2
*154 gen_shunt_g1\[1\]\.d1
*155 gen_shunt_g1\[1\]\.d2
*156 gen_shunt_g1\[20\]\.d1
*157 gen_shunt_g1\[20\]\.d2
*158 gen_shunt_g1\[21\]\.d1
*159 gen_shunt_g1\[21\]\.d2
*160 gen_shunt_g1\[22\]\.d1
*161 gen_shunt_g1\[22\]\.d2
*162 gen_shunt_g1\[23\]\.d1
*163 gen_shunt_g1\[23\]\.d2
*164 gen_shunt_g1\[24\]\.d1
*165 gen_shunt_g1\[24\]\.d2
*166 gen_shunt_g1\[25\]\.d1
*167 gen_shunt_g1\[25\]\.d2
*168 gen_shunt_g1\[26\]\.d1
*169 gen_shunt_g1\[26\]\.d2
*170 gen_shunt_g1\[27\]\.d1
*171 gen_shunt_g1\[27\]\.d2
*172 gen_shunt_g1\[28\]\.d1
*173 gen_shunt_g1\[28\]\.d2
*174 gen_shunt_g1\[29\]\.d1
*175 gen_shunt_g1\[29\]\.d2
*176 gen_shunt_g1\[2\]\.d1
*177 gen_shunt_g1\[2\]\.d2
*178 gen_shunt_g1\[30\]\.d1
*179 gen_shunt_g1\[30\]\.d2
*180 gen_shunt_g1\[31\]\.d1
*181 gen_shunt_g1\[31\]\.d2
*182 gen_shunt_g1\[32\]\.d1
*183 gen_shunt_g1\[32\]\.d2
*184 gen_shunt_g1\[33\]\.d1
*185 gen_shunt_g1\[33\]\.d2
*186 gen_shunt_g1\[34\]\.d1
*187 gen_shunt_g1\[34\]\.d2
*188 gen_shunt_g1\[35\]\.d1
*189 gen_shunt_g1\[35\]\.d2
*190 gen_shunt_g1\[36\]\.d1
*191 gen_shunt_g1\[36\]\.d2
*192 gen_shunt_g1\[37\]\.d1
*193 gen_shunt_g1\[37\]\.d2
*194 gen_shunt_g1\[38\]\.d1
*195 gen_shunt_g1\[38\]\.d2
*196 gen_shunt_g1\[39\]\.d1
*197 gen_shunt_g1\[39\]\.d2
*198 gen_shunt_g1\[3\]\.d1
*199 gen_shunt_g1\[3\]\.d2
*200 gen_shunt_g1\[40\]\.d1
*201 gen_shunt_g1\[40\]\.d2
*202 gen_shunt_g1\[41\]\.d1
*203 gen_shunt_g1\[41\]\.d2
*204 gen_shunt_g1\[42\]\.d1
*205 gen_shunt_g1\[42\]\.d2
*206 gen_shunt_g1\[43\]\.d1
*207 gen_shunt_g1\[43\]\.d2
*208 gen_shunt_g1\[44\]\.d1
*209 gen_shunt_g1\[44\]\.d2
*210 gen_shunt_g1\[45\]\.d1
*211 gen_shunt_g1\[45\]\.d2
*212 gen_shunt_g1\[46\]\.d1
*213 gen_shunt_g1\[46\]\.d2
*214 gen_shunt_g1\[47\]\.d1
*215 gen_shunt_g1\[47\]\.d2
*216 gen_shunt_g1\[48\]\.d1
*217 gen_shunt_g1\[48\]\.d2
*218 gen_shunt_g1\[49\]\.d1
*219 gen_shunt_g1\[49\]\.d2
*220 gen_shunt_g1\[4\]\.d1
*221 gen_shunt_g1\[4\]\.d2
*222 gen_shunt_g1\[50\]\.d1
*223 gen_shunt_g1\[50\]\.d2
*224 gen_shunt_g1\[51\]\.d1
*225 gen_shunt_g1\[51\]\.d2
*226 gen_shunt_g1\[52\]\.d1
*227 gen_shunt_g1\[52\]\.d2
*228 gen_shunt_g1\[53\]\.d1
*229 gen_shunt_g1\[53\]\.d2
*230 gen_shunt_g1\[54\]\.d1
*231 gen_shunt_g1\[54\]\.d2
*232 gen_shunt_g1\[55\]\.d1
*233 gen_shunt_g1\[55\]\.d2
*234 gen_shunt_g1\[56\]\.d1
*235 gen_shunt_g1\[56\]\.d2
*236 gen_shunt_g1\[57\]\.d1
*237 gen_shunt_g1\[57\]\.d2
*238 gen_shunt_g1\[58\]\.d1
*239 gen_shunt_g1\[58\]\.d2
*240 gen_shunt_g1\[59\]\.d1
*241 gen_shunt_g1\[59\]\.d2
*242 gen_shunt_g1\[5\]\.d1
*243 gen_shunt_g1\[5\]\.d2
*244 gen_shunt_g1\[60\]\.d1
*245 gen_shunt_g1\[60\]\.d2
*246 gen_shunt_g1\[61\]\.d1
*247 gen_shunt_g1\[61\]\.d2
*248 gen_shunt_g1\[62\]\.d1
*249 gen_shunt_g1\[62\]\.d2
*250 gen_shunt_g1\[63\]\.d1
*251 gen_shunt_g1\[63\]\.d2
*252 gen_shunt_g1\[64\]\.d1
*253 gen_shunt_g1\[64\]\.d2
*254 gen_shunt_g1\[65\]\.d1
*255 gen_shunt_g1\[65\]\.d2
*256 gen_shunt_g1\[66\]\.d1
*257 gen_shunt_g1\[66\]\.d2
*258 gen_shunt_g1\[67\]\.d1
*259 gen_shunt_g1\[67\]\.d2
*260 gen_shunt_g1\[68\]\.d1
*261 gen_shunt_g1\[68\]\.d2
*262 gen_shunt_g1\[69\]\.d1
*263 gen_shunt_g1\[69\]\.d2
*264 gen_shunt_g1\[6\]\.d1
*265 gen_shunt_g1\[6\]\.d2
*266 gen_shunt_g1\[70\]\.d1
*267 gen_shunt_g1\[70\]\.d2
*268 gen_shunt_g1\[71\]\.d1
*269 gen_shunt_g1\[71\]\.d2
*270 gen_shunt_g1\[72\]\.d1
*271 gen_shunt_g1\[72\]\.d2
*272 gen_shunt_g1\[73\]\.d1
*273 gen_shunt_g1\[73\]\.d2
*274 gen_shunt_g1\[74\]\.d1
*275 gen_shunt_g1\[74\]\.d2
*276 gen_shunt_g1\[75\]\.d1
*277 gen_shunt_g1\[75\]\.d2
*278 gen_shunt_g1\[76\]\.d1
*279 gen_shunt_g1\[76\]\.d2
*280 gen_shunt_g1\[77\]\.d1
*281 gen_shunt_g1\[77\]\.d2
*282 gen_shunt_g1\[78\]\.d1
*283 gen_shunt_g1\[78\]\.d2
*284 gen_shunt_g1\[79\]\.d1
*285 gen_shunt_g1\[79\]\.d2
*286 gen_shunt_g1\[7\]\.d1
*287 gen_shunt_g1\[7\]\.d2
*288 gen_shunt_g1\[80\]\.d1
*289 gen_shunt_g1\[80\]\.d2
*290 gen_shunt_g1\[81\]\.d1
*291 gen_shunt_g1\[81\]\.d2
*292 gen_shunt_g1\[82\]\.d1
*293 gen_shunt_g1\[82\]\.d2
*294 gen_shunt_g1\[83\]\.d1
*295 gen_shunt_g1\[83\]\.d2
*296 gen_shunt_g1\[84\]\.d1
*297 gen_shunt_g1\[84\]\.d2
*298 gen_shunt_g1\[85\]\.d1
*299 gen_shunt_g1\[85\]\.d2
*300 gen_shunt_g1\[86\]\.d1
*301 gen_shunt_g1\[86\]\.d2
*302 gen_shunt_g1\[87\]\.d1
*303 gen_shunt_g1\[87\]\.d2
*304 gen_shunt_g1\[88\]\.d1
*305 gen_shunt_g1\[88\]\.d2
*306 gen_shunt_g1\[89\]\.d1
*307 gen_shunt_g1\[89\]\.d2
*308 gen_shunt_g1\[8\]\.d1
*309 gen_shunt_g1\[8\]\.d2
*310 gen_shunt_g1\[90\]\.d1
*311 gen_shunt_g1\[90\]\.d2
*312 gen_shunt_g1\[91\]\.d1
*313 gen_shunt_g1\[91\]\.d2
*314 gen_shunt_g1\[92\]\.d1
*315 gen_shunt_g1\[92\]\.d2
*316 gen_shunt_g1\[93\]\.d1
*317 gen_shunt_g1\[93\]\.d2
*318 gen_shunt_g1\[94\]\.d1
*319 gen_shunt_g1\[94\]\.d2
*320 gen_shunt_g1\[95\]\.d1
*321 gen_shunt_g1\[95\]\.d2
*322 gen_shunt_g1\[9\]\.d1
*323 gen_shunt_g1\[9\]\.d2
*324 gen_shunt_g2\[0\]\.d1
*325 gen_shunt_g2\[0\]\.d2
*326 gen_shunt_g2\[10\]\.d1
*327 gen_shunt_g2\[10\]\.d2
*328 gen_shunt_g2\[11\]\.d1
*329 gen_shunt_g2\[11\]\.d2
*330 gen_shunt_g2\[12\]\.d1
*331 gen_shunt_g2\[12\]\.d2
*332 gen_shunt_g2\[13\]\.d1
*333 gen_shunt_g2\[13\]\.d2
*334 gen_shunt_g2\[14\]\.d1
*335 gen_shunt_g2\[14\]\.d2
*336 gen_shunt_g2\[15\]\.d1
*337 gen_shunt_g2\[15\]\.d2
*338 gen_shunt_g2\[16\]\.d1
*339 gen_shunt_g2\[16\]\.d2
*340 gen_shunt_g2\[17\]\.d1
*341 gen_shunt_g2\[17\]\.d2
*342 gen_shunt_g2\[18\]\.d1
*343 gen_shunt_g2\[18\]\.d2
*344 gen_shunt_g2\[19\]\.d1
*345 gen_shunt_g2\[19\]\.d2
*346 gen_shunt_g2\[1\]\.d1
*347 gen_shunt_g2\[1\]\.d2
*348 gen_shunt_g2\[20\]\.d1
*349 gen_shunt_g2\[20\]\.d2
*350 gen_shunt_g2\[21\]\.d1
*351 gen_shunt_g2\[21\]\.d2
*352 gen_shunt_g2\[22\]\.d1
*353 gen_shunt_g2\[22\]\.d2
*354 gen_shunt_g2\[23\]\.d1
*355 gen_shunt_g2\[23\]\.d2
*356 gen_shunt_g2\[24\]\.d1
*357 gen_shunt_g2\[24\]\.d2
*358 gen_shunt_g2\[25\]\.d1
*359 gen_shunt_g2\[25\]\.d2
*360 gen_shunt_g2\[26\]\.d1
*361 gen_shunt_g2\[26\]\.d2
*362 gen_shunt_g2\[27\]\.d1
*363 gen_shunt_g2\[27\]\.d2
*364 gen_shunt_g2\[28\]\.d1
*365 gen_shunt_g2\[28\]\.d2
*366 gen_shunt_g2\[29\]\.d1
*367 gen_shunt_g2\[29\]\.d2
*368 gen_shunt_g2\[2\]\.d1
*369 gen_shunt_g2\[2\]\.d2
*370 gen_shunt_g2\[30\]\.d1
*371 gen_shunt_g2\[30\]\.d2
*372 gen_shunt_g2\[31\]\.d1
*373 gen_shunt_g2\[31\]\.d2
*374 gen_shunt_g2\[32\]\.d1
*375 gen_shunt_g2\[32\]\.d2
*376 gen_shunt_g2\[33\]\.d1
*377 gen_shunt_g2\[33\]\.d2
*378 gen_shunt_g2\[34\]\.d1
*379 gen_shunt_g2\[34\]\.d2
*380 gen_shunt_g2\[35\]\.d1
*381 gen_shunt_g2\[35\]\.d2
*382 gen_shunt_g2\[36\]\.d1
*383 gen_shunt_g2\[36\]\.d2
*384 gen_shunt_g2\[37\]\.d1
*385 gen_shunt_g2\[37\]\.d2
*386 gen_shunt_g2\[38\]\.d1
*387 gen_shunt_g2\[38\]\.d2
*388 gen_shunt_g2\[39\]\.d1
*389 gen_shunt_g2\[39\]\.d2
*390 gen_shunt_g2\[3\]\.d1
*391 gen_shunt_g2\[3\]\.d2
*392 gen_shunt_g2\[40\]\.d1
*393 gen_shunt_g2\[40\]\.d2
*394 gen_shunt_g2\[41\]\.d1
*395 gen_shunt_g2\[41\]\.d2
*396 gen_shunt_g2\[42\]\.d1
*397 gen_shunt_g2\[42\]\.d2
*398 gen_shunt_g2\[43\]\.d1
*399 gen_shunt_g2\[43\]\.d2
*400 gen_shunt_g2\[44\]\.d1
*401 gen_shunt_g2\[44\]\.d2
*402 gen_shunt_g2\[45\]\.d1
*403 gen_shunt_g2\[45\]\.d2
*404 gen_shunt_g2\[46\]\.d1
*405 gen_shunt_g2\[46\]\.d2
*406 gen_shunt_g2\[47\]\.d1
*407 gen_shunt_g2\[47\]\.d2
*408 gen_shunt_g2\[4\]\.d1
*409 gen_shunt_g2\[4\]\.d2
*410 gen_shunt_g2\[5\]\.d1
*411 gen_shunt_g2\[5\]\.d2
*412 gen_shunt_g2\[6\]\.d1
*413 gen_shunt_g2\[6\]\.d2
*414 gen_shunt_g2\[7\]\.d1
*415 gen_shunt_g2\[7\]\.d2
*416 gen_shunt_g2\[8\]\.d1
*417 gen_shunt_g2\[8\]\.d2
*418 gen_shunt_g2\[9\]\.d1
*419 gen_shunt_g2\[9\]\.d2
*420 gen_shunt_g3\[0\]\.d1
*421 gen_shunt_g3\[0\]\.d2
*422 gen_shunt_g3\[10\]\.d1
*423 gen_shunt_g3\[10\]\.d2
*424 gen_shunt_g3\[11\]\.d1
*425 gen_shunt_g3\[11\]\.d2
*426 gen_shunt_g3\[12\]\.d1
*427 gen_shunt_g3\[12\]\.d2
*428 gen_shunt_g3\[13\]\.d1
*429 gen_shunt_g3\[13\]\.d2
*430 gen_shunt_g3\[14\]\.d1
*431 gen_shunt_g3\[14\]\.d2
*432 gen_shunt_g3\[15\]\.d1
*433 gen_shunt_g3\[15\]\.d2
*434 gen_shunt_g3\[16\]\.d1
*435 gen_shunt_g3\[16\]\.d2
*436 gen_shunt_g3\[17\]\.d1
*437 gen_shunt_g3\[17\]\.d2
*438 gen_shunt_g3\[18\]\.d1
*439 gen_shunt_g3\[18\]\.d2
*440 gen_shunt_g3\[19\]\.d1
*441 gen_shunt_g3\[19\]\.d2
*442 gen_shunt_g3\[1\]\.d1
*443 gen_shunt_g3\[1\]\.d2
*444 gen_shunt_g3\[20\]\.d1
*445 gen_shunt_g3\[20\]\.d2
*446 gen_shunt_g3\[21\]\.d1
*447 gen_shunt_g3\[21\]\.d2
*448 gen_shunt_g3\[22\]\.d1
*449 gen_shunt_g3\[22\]\.d2
*450 gen_shunt_g3\[23\]\.d1
*451 gen_shunt_g3\[23\]\.d2
*452 gen_shunt_g3\[2\]\.d1
*453 gen_shunt_g3\[2\]\.d2
*454 gen_shunt_g3\[3\]\.d1
*455 gen_shunt_g3\[3\]\.d2
*456 gen_shunt_g3\[4\]\.d1
*457 gen_shunt_g3\[4\]\.d2
*458 gen_shunt_g3\[5\]\.d1
*459 gen_shunt_g3\[5\]\.d2
*460 gen_shunt_g3\[6\]\.d1
*461 gen_shunt_g3\[6\]\.d2
*462 gen_shunt_g3\[7\]\.d1
*463 gen_shunt_g3\[7\]\.d2
*464 gen_shunt_g3\[8\]\.d1
*465 gen_shunt_g3\[8\]\.d2
*466 gen_shunt_g3\[9\]\.d1
*467 gen_shunt_g3\[9\]\.d2
*468 gen_shunt_g4\[0\]\.d1
*469 gen_shunt_g4\[0\]\.d2
*470 gen_shunt_g4\[10\]\.d1
*471 gen_shunt_g4\[10\]\.d2
*472 gen_shunt_g4\[11\]\.d1
*473 gen_shunt_g4\[11\]\.d2
*474 gen_shunt_g4\[1\]\.d1
*475 gen_shunt_g4\[1\]\.d2
*476 gen_shunt_g4\[2\]\.d1
*477 gen_shunt_g4\[2\]\.d2
*478 gen_shunt_g4\[3\]\.d1
*479 gen_shunt_g4\[3\]\.d2
*480 gen_shunt_g4\[4\]\.d1
*481 gen_shunt_g4\[4\]\.d2
*482 gen_shunt_g4\[5\]\.d1
*483 gen_shunt_g4\[5\]\.d2
*484 gen_shunt_g4\[6\]\.d1
*485 gen_shunt_g4\[6\]\.d2
*486 gen_shunt_g4\[7\]\.d1
*487 gen_shunt_g4\[7\]\.d2
*488 gen_shunt_g4\[8\]\.d1
*489 gen_shunt_g4\[8\]\.d2
*490 gen_shunt_g4\[9\]\.d1
*491 gen_shunt_g4\[9\]\.d2
*492 gen_shunt_g5\[0\]\.d1
*493 gen_shunt_g5\[0\]\.d2
*494 gen_shunt_g5\[1\]\.d1
*495 gen_shunt_g5\[1\]\.d2
*496 gen_shunt_g5\[2\]\.d1
*497 gen_shunt_g5\[2\]\.d2
*498 gen_shunt_g5\[3\]\.d1
*499 gen_shunt_g5\[3\]\.d2
*500 gen_shunt_g5\[4\]\.d1
*501 gen_shunt_g5\[4\]\.d2
*502 gen_shunt_g5\[5\]\.d1
*503 gen_shunt_g5\[5\]\.d2
*504 gen_shunt_g6\[0\]\.d1
*505 gen_shunt_g6\[0\]\.d2
*506 gen_shunt_g6\[1\]\.d1
*507 gen_shunt_g6\[1\]\.d2
*508 gen_shunt_g6\[2\]\.d1
*509 gen_shunt_g6\[2\]\.d2
*510 gen_shunt_g7\[0\]\.d1
*511 gen_shunt_g7\[0\]\.d2
*512 gen_shunt_g7\[1\]\.d1
*513 gen_shunt_g7\[1\]\.d2
*514 gen_shunt_g8\[0\]\.d1
*515 gen_shunt_g8\[0\]\.d2
*516 gen_shunt_gy_g1\[0\]\.d1
*517 gen_shunt_gy_g1\[0\]\.d2
*518 gen_shunt_gy_g1\[0\]\.d3
*519 gen_shunt_gy_g1\[0\]\.d4
*520 gen_shunt_gy_g1\[1\]\.d1
*521 gen_shunt_gy_g1\[1\]\.d2
*522 gen_shunt_gy_g1\[1\]\.d3
*523 gen_shunt_gy_g1\[1\]\.d4
*524 gen_shunt_gy_g1\[2\]\.d1
*525 gen_shunt_gy_g1\[2\]\.d2
*526 gen_shunt_gy_g1\[2\]\.d3
*527 gen_shunt_gy_g1\[2\]\.d4
*528 gen_shunt_gy_g1\[3\]\.d1
*529 gen_shunt_gy_g1\[3\]\.d2
*530 gen_shunt_gy_g1\[3\]\.d3
*531 gen_shunt_gy_g1\[3\]\.d4
*532 gen_shunt_gy_g1\[4\]\.d1
*533 gen_shunt_gy_g1\[4\]\.d2
*534 gen_shunt_gy_g1\[4\]\.d3
*535 gen_shunt_gy_g1\[4\]\.d4
*536 gen_shunt_gy_g1\[5\]\.d1
*537 gen_shunt_gy_g1\[5\]\.d2
*538 gen_shunt_gy_g1\[5\]\.d3
*539 gen_shunt_gy_g1\[5\]\.d4
*540 gen_shunt_gy_g1\[6\]\.d1
*541 gen_shunt_gy_g1\[6\]\.d2
*542 gen_shunt_gy_g1\[6\]\.d3
*543 gen_shunt_gy_g1\[6\]\.d4
*544 gen_shunt_gy_g1\[7\]\.d1
*545 gen_shunt_gy_g1\[7\]\.d2
*546 gen_shunt_gy_g1\[7\]\.d3
*547 gen_shunt_gy_g1\[7\]\.d4
*548 gen_shunt_gy_g2\[0\]\.d1
*549 gen_shunt_gy_g2\[0\]\.d2
*550 gen_shunt_gy_g2\[0\]\.d3
*551 gen_shunt_gy_g2\[0\]\.d4
*552 gen_shunt_gy_g2\[1\]\.d1
*553 gen_shunt_gy_g2\[1\]\.d2
*554 gen_shunt_gy_g2\[1\]\.d3
*555 gen_shunt_gy_g2\[1\]\.d4
*556 gen_shunt_gy_g2\[2\]\.d1
*557 gen_shunt_gy_g2\[2\]\.d2
*558 gen_shunt_gy_g2\[2\]\.d3
*559 gen_shunt_gy_g2\[2\]\.d4
*560 gen_shunt_gy_g2\[3\]\.d1
*561 gen_shunt_gy_g2\[3\]\.d2
*562 gen_shunt_gy_g2\[3\]\.d3
*563 gen_shunt_gy_g2\[3\]\.d4
*564 gen_shunt_gy_g3\[0\]\.d1
*565 gen_shunt_gy_g3\[0\]\.d2
*566 gen_shunt_gy_g3\[0\]\.d3
*567 gen_shunt_gy_g3\[0\]\.d4
*568 gen_shunt_gy_g3\[1\]\.d1
*569 gen_shunt_gy_g3\[1\]\.d2
*570 gen_shunt_gy_g3\[1\]\.d3
*571 gen_shunt_gy_g3\[1\]\.d4
*572 gen_shunt_gy_g4\[0\]\.d1
*573 gen_shunt_gy_g4\[0\]\.d2
*574 gen_shunt_gygy_g1\[0\]\.d1
*575 gen_shunt_gygy_g1\[0\]\.d2
*576 gen_shunt_gygy_g1\[1\]\.d1
*577 gen_shunt_gygy_g1\[1\]\.d2
*578 gen_shunt_gygy_g1\[2\]\.d1
*579 gen_shunt_gygy_g1\[2\]\.d2
*580 gen_shunt_gygy_g1\[3\]\.d1
*581 gen_shunt_gygy_g1\[3\]\.d2
*582 gen_shunt_gygy_g1\[4\]\.d1
*583 gen_shunt_gygy_g1\[4\]\.d2
*584 gen_shunt_gygy_g1\[5\]\.d1
*585 gen_shunt_gygy_g1\[5\]\.d2
*586 gen_shunt_gygy_g1\[6\]\.d1
*587 gen_shunt_gygy_g1\[6\]\.d2
*588 gen_shunt_gygy_g1\[7\]\.d1
*589 gen_shunt_gygy_g1\[7\]\.d2
*590 gen_shunt_gygy_g2\[0\]\.d1
*591 gen_shunt_gygy_g2\[0\]\.d2
*592 gen_shunt_gygy_g2\[1\]\.d1
*593 gen_shunt_gygy_g2\[1\]\.d2
*594 gen_shunt_gygy_g2\[2\]\.d1
*595 gen_shunt_gygy_g2\[2\]\.d2
*596 gen_shunt_gygy_g2\[3\]\.d1
*597 gen_shunt_gygy_g2\[3\]\.d2
*598 gen_shunt_gygy_g3\[0\]\.d1
*599 gen_shunt_gygy_g3\[0\]\.d2
*600 gen_shunt_gygy_g3\[1\]\.d1
*601 gen_shunt_gygy_g3\[1\]\.d2
*602 gen_shunt_gygy_g6\[0\]\.d1
*603 gen_shunt_gygy_g6\[0\]\.d2
*604 gen_shunt_gygy_g6\[0\]\.d3
*605 gen_shunt_gygy_g6\[0\]\.d4
*606 gen_shunt_gygy_g6\[0\]\.d5
*607 gen_shunt_gygy_g6\[0\]\.d6
*608 FILLER_0_104
*609 FILLER_0_107
*610 FILLER_0_139
*611 FILLER_0_142
*612 FILLER_0_174
*613 FILLER_0_177
*614 FILLER_0_2
*615 FILLER_0_202
*616 FILLER_0_212
*617 FILLER_0_237
*618 FILLER_0_247
*619 FILLER_0_27
*620 FILLER_0_272
*621 FILLER_0_282
*622 FILLER_0_314
*623 FILLER_0_317
*624 FILLER_0_325
*625 FILLER_0_329
*626 FILLER_0_37
*627 FILLER_0_62
*628 FILLER_0_72
*629 FILLER_10_103
*630 FILLER_10_105
*631 FILLER_10_108
*632 FILLER_10_124
*633 FILLER_10_150
*634 FILLER_10_176
*635 FILLER_10_179
*636 FILLER_10_2
*637 FILLER_10_204
*638 FILLER_10_230
*639 FILLER_10_246
*640 FILLER_10_250
*641 FILLER_10_275
*642 FILLER_10_301
*643 FILLER_10_317
*644 FILLER_10_321
*645 FILLER_10_329
*646 FILLER_10_34
*647 FILLER_10_37
*648 FILLER_10_62
*649 FILLER_10_70
*650 FILLER_10_95
*651 FILLER_11_10
*652 FILLER_11_124
*653 FILLER_11_140
*654 FILLER_11_144
*655 FILLER_11_160
*656 FILLER_11_186
*657 FILLER_11_2
*658 FILLER_11_212
*659 FILLER_11_215
*660 FILLER_11_240
*661 FILLER_11_266
*662 FILLER_11_282
*663 FILLER_11_286
*664 FILLER_11_302
*665 FILLER_11_330
*666 FILLER_11_36
*667 FILLER_11_44
*668 FILLER_11_70
*669 FILLER_11_73
*670 FILLER_11_98
*671 FILLER_12_103
*672 FILLER_12_105
*673 FILLER_12_108
*674 FILLER_12_133
*675 FILLER_12_149
*676 FILLER_12_151
*677 FILLER_12_176
*678 FILLER_12_179
*679 FILLER_12_2
*680 FILLER_12_204
*681 FILLER_12_230
*682 FILLER_12_246
*683 FILLER_12_250
*684 FILLER_12_275
*685 FILLER_12_291
*686 FILLER_12_293
*687 FILLER_12_318
*688 FILLER_12_321
*689 FILLER_12_329
*690 FILLER_12_34
*691 FILLER_12_37
*692 FILLER_12_69
*693 FILLER_12_95
*694 FILLER_13_124
*695 FILLER_13_140
*696 FILLER_13_144
*697 FILLER_13_160
*698 FILLER_13_18
*699 FILLER_13_186
*700 FILLER_13_2
*701 FILLER_13_212
*702 FILLER_13_215
*703 FILLER_13_240
*704 FILLER_13_266
*705 FILLER_13_282
*706 FILLER_13_286
*707 FILLER_13_302
*708 FILLER_13_330
*709 FILLER_13_44
*710 FILLER_13_70
*711 FILLER_13_73
*712 FILLER_13_98
*713 FILLER_14_103
*714 FILLER_14_105
*715 FILLER_14_108
*716 FILLER_14_133
*717 FILLER_14_159
*718 FILLER_14_175
*719 FILLER_14_179
*720 FILLER_14_2
*721 FILLER_14_204
*722 FILLER_14_230
*723 FILLER_14_246
*724 FILLER_14_250
*725 FILLER_14_275
*726 FILLER_14_301
*727 FILLER_14_317
*728 FILLER_14_321
*729 FILLER_14_329
*730 FILLER_14_34
*731 FILLER_14_37
*732 FILLER_14_69
*733 FILLER_14_95
*734 FILLER_15_124
*735 FILLER_15_140
*736 FILLER_15_144
*737 FILLER_15_169
*738 FILLER_15_18
*739 FILLER_15_195
*740 FILLER_15_2
*741 FILLER_15_211
*742 FILLER_15_215
*743 FILLER_15_240
*744 FILLER_15_266
*745 FILLER_15_282
*746 FILLER_15_286
*747 FILLER_15_302
*748 FILLER_15_330
*749 FILLER_15_44
*750 FILLER_15_70
*751 FILLER_15_73
*752 FILLER_15_98
*753 FILLER_16_103
*754 FILLER_16_105
*755 FILLER_16_108
*756 FILLER_16_133
*757 FILLER_16_159
*758 FILLER_16_175
*759 FILLER_16_179
*760 FILLER_16_2
*761 FILLER_16_204
*762 FILLER_16_230
*763 FILLER_16_246
*764 FILLER_16_250
*765 FILLER_16_275
*766 FILLER_16_291
*767 FILLER_16_293
*768 FILLER_16_318
*769 FILLER_16_321
*770 FILLER_16_329
*771 FILLER_16_34
*772 FILLER_16_37
*773 FILLER_16_41
*774 FILLER_16_66
*775 FILLER_16_70
*776 FILLER_16_95
*777 FILLER_17_10
*778 FILLER_17_124
*779 FILLER_17_14
*780 FILLER_17_140
*781 FILLER_17_144
*782 FILLER_17_169
*783 FILLER_17_195
*784 FILLER_17_2
*785 FILLER_17_211
*786 FILLER_17_215
*787 FILLER_17_240
*788 FILLER_17_266
*789 FILLER_17_282
*790 FILLER_17_286
*791 FILLER_17_302
*792 FILLER_17_330
*793 FILLER_17_40
*794 FILLER_17_66
*795 FILLER_17_70
*796 FILLER_17_73
*797 FILLER_17_98
*798 FILLER_18_102
*799 FILLER_18_108
*800 FILLER_18_133
*801 FILLER_18_159
*802 FILLER_18_175
*803 FILLER_18_179
*804 FILLER_18_2
*805 FILLER_18_204
*806 FILLER_18_230
*807 FILLER_18_246
*808 FILLER_18_250
*809 FILLER_18_275
*810 FILLER_18_291
*811 FILLER_18_293
*812 FILLER_18_318
*813 FILLER_18_321
*814 FILLER_18_329
*815 FILLER_18_34
*816 FILLER_18_37
*817 FILLER_18_41
*818 FILLER_18_66
*819 FILLER_18_94
*820 FILLER_19_10
*821 FILLER_19_124
*822 FILLER_19_14
*823 FILLER_19_140
*824 FILLER_19_144
*825 FILLER_19_169
*826 FILLER_19_195
*827 FILLER_19_2
*828 FILLER_19_211
*829 FILLER_19_215
*830 FILLER_19_240
*831 FILLER_19_266
*832 FILLER_19_282
*833 FILLER_19_286
*834 FILLER_19_302
*835 FILLER_19_330
*836 FILLER_19_40
*837 FILLER_19_66
*838 FILLER_19_70
*839 FILLER_19_73
*840 FILLER_19_98
*841 FILLER_1_115
*842 FILLER_1_141
*843 FILLER_1_144
*844 FILLER_1_176
*845 FILLER_1_2
*846 FILLER_1_202
*847 FILLER_1_210
*848 FILLER_1_212
*849 FILLER_1_215
*850 FILLER_1_240
*851 FILLER_1_266
*852 FILLER_1_27
*853 FILLER_1_282
*854 FILLER_1_286
*855 FILLER_1_302
*856 FILLER_1_330
*857 FILLER_1_43
*858 FILLER_1_45
*859 FILLER_1_70
*860 FILLER_1_73
*861 FILLER_1_89
*862 FILLER_20_102
*863 FILLER_20_108
*864 FILLER_20_133
*865 FILLER_20_159
*866 FILLER_20_175
*867 FILLER_20_179
*868 FILLER_20_2
*869 FILLER_20_204
*870 FILLER_20_230
*871 FILLER_20_246
*872 FILLER_20_250
*873 FILLER_20_266
*874 FILLER_20_292
*875 FILLER_20_318
*876 FILLER_20_321
*877 FILLER_20_329
*878 FILLER_20_34
*879 FILLER_20_37
*880 FILLER_20_41
*881 FILLER_20_66
*882 FILLER_20_94
*883 FILLER_21_124
*884 FILLER_21_140
*885 FILLER_21_144
*886 FILLER_21_169
*887 FILLER_21_18
*888 FILLER_21_195
*889 FILLER_21_2
*890 FILLER_21_211
*891 FILLER_21_215
*892 FILLER_21_240
*893 FILLER_21_256
*894 FILLER_21_258
*895 FILLER_21_283
*896 FILLER_21_286
*897 FILLER_21_302
*898 FILLER_21_330
*899 FILLER_21_44
*900 FILLER_21_70
*901 FILLER_21_73
*902 FILLER_21_98
*903 FILLER_22_102
*904 FILLER_22_108
*905 FILLER_22_133
*906 FILLER_22_159
*907 FILLER_22_175
*908 FILLER_22_179
*909 FILLER_22_2
*910 FILLER_22_204
*911 FILLER_22_230
*912 FILLER_22_246
*913 FILLER_22_250
*914 FILLER_22_266
*915 FILLER_22_292
*916 FILLER_22_318
*917 FILLER_22_321
*918 FILLER_22_329
*919 FILLER_22_34
*920 FILLER_22_37
*921 FILLER_22_41
*922 FILLER_22_43
*923 FILLER_22_68
*924 FILLER_22_94
*925 FILLER_23_130
*926 FILLER_23_138
*927 FILLER_23_144
*928 FILLER_23_169
*929 FILLER_23_18
*930 FILLER_23_195
*931 FILLER_23_2
*932 FILLER_23_211
*933 FILLER_23_215
*934 FILLER_23_240
*935 FILLER_23_256
*936 FILLER_23_258
*937 FILLER_23_283
*938 FILLER_23_286
*939 FILLER_23_302
*940 FILLER_23_330
*941 FILLER_23_44
*942 FILLER_23_70
*943 FILLER_23_73
*944 FILLER_23_98
*945 FILLER_24_101
*946 FILLER_24_105
*947 FILLER_24_108
*948 FILLER_24_133
*949 FILLER_24_159
*950 FILLER_24_175
*951 FILLER_24_179
*952 FILLER_24_2
*953 FILLER_24_204
*954 FILLER_24_230
*955 FILLER_24_246
*956 FILLER_24_250
*957 FILLER_24_266
*958 FILLER_24_292
*959 FILLER_24_318
*960 FILLER_24_321
*961 FILLER_24_329
*962 FILLER_24_34
*963 FILLER_24_37
*964 FILLER_24_41
*965 FILLER_24_67
*966 FILLER_24_93
*967 FILLER_25_104
*968 FILLER_25_130
*969 FILLER_25_138
*970 FILLER_25_144
*971 FILLER_25_169
*972 FILLER_25_18
*973 FILLER_25_195
*974 FILLER_25_2
*975 FILLER_25_211
*976 FILLER_25_215
*977 FILLER_25_240
*978 FILLER_25_266
*979 FILLER_25_282
*980 FILLER_25_286
*981 FILLER_25_302
*982 FILLER_25_330
*983 FILLER_25_44
*984 FILLER_25_70
*985 FILLER_25_73
*986 FILLER_25_77
*987 FILLER_25_79
*988 FILLER_26_105
*989 FILLER_26_108
*990 FILLER_26_133
*991 FILLER_26_159
*992 FILLER_26_175
*993 FILLER_26_179
*994 FILLER_26_2
*995 FILLER_26_204
*996 FILLER_26_230
*997 FILLER_26_246
*998 FILLER_26_250
*999 FILLER_26_275
*1000 FILLER_26_291
*1001 FILLER_26_293
*1002 FILLER_26_318
*1003 FILLER_26_321
*1004 FILLER_26_329
*1005 FILLER_26_34
*1006 FILLER_26_37
*1007 FILLER_26_53
*1008 FILLER_26_79
*1009 FILLER_27_104
*1010 FILLER_27_130
*1011 FILLER_27_138
*1012 FILLER_27_144
*1013 FILLER_27_169
*1014 FILLER_27_18
*1015 FILLER_27_195
*1016 FILLER_27_2
*1017 FILLER_27_211
*1018 FILLER_27_215
*1019 FILLER_27_240
*1020 FILLER_27_266
*1021 FILLER_27_282
*1022 FILLER_27_286
*1023 FILLER_27_302
*1024 FILLER_27_330
*1025 FILLER_27_44
*1026 FILLER_27_70
*1027 FILLER_27_73
*1028 FILLER_27_77
*1029 FILLER_27_79
*1030 FILLER_28_105
*1031 FILLER_28_108
*1032 FILLER_28_133
*1033 FILLER_28_159
*1034 FILLER_28_175
*1035 FILLER_28_179
*1036 FILLER_28_2
*1037 FILLER_28_204
*1038 FILLER_28_230
*1039 FILLER_28_246
*1040 FILLER_28_250
*1041 FILLER_28_275
*1042 FILLER_28_301
*1043 FILLER_28_317
*1044 FILLER_28_321
*1045 FILLER_28_329
*1046 FILLER_28_34
*1047 FILLER_28_37
*1048 FILLER_28_53
*1049 FILLER_28_79
*1050 FILLER_29_104
*1051 FILLER_29_130
*1052 FILLER_29_138
*1053 FILLER_29_144
*1054 FILLER_29_169
*1055 FILLER_29_18
*1056 FILLER_29_195
*1057 FILLER_29_2
*1058 FILLER_29_211
*1059 FILLER_29_215
*1060 FILLER_29_240
*1061 FILLER_29_266
*1062 FILLER_29_282
*1063 FILLER_29_286
*1064 FILLER_29_302
*1065 FILLER_29_330
*1066 FILLER_29_44
*1067 FILLER_29_70
*1068 FILLER_29_73
*1069 FILLER_29_77
*1070 FILLER_29_79
*1071 FILLER_2_105
*1072 FILLER_2_108
*1073 FILLER_2_124
*1074 FILLER_2_150
*1075 FILLER_2_176
*1076 FILLER_2_179
*1077 FILLER_2_2
*1078 FILLER_2_204
*1079 FILLER_2_230
*1080 FILLER_2_246
*1081 FILLER_2_250
*1082 FILLER_2_27
*1083 FILLER_2_275
*1084 FILLER_2_291
*1085 FILLER_2_293
*1086 FILLER_2_318
*1087 FILLER_2_321
*1088 FILLER_2_329
*1089 FILLER_2_37
*1090 FILLER_2_53
*1091 FILLER_2_79
*1092 FILLER_30_105
*1093 FILLER_30_108
*1094 FILLER_30_133
*1095 FILLER_30_159
*1096 FILLER_30_175
*1097 FILLER_30_179
*1098 FILLER_30_2
*1099 FILLER_30_204
*1100 FILLER_30_230
*1101 FILLER_30_246
*1102 FILLER_30_250
*1103 FILLER_30_275
*1104 FILLER_30_301
*1105 FILLER_30_317
*1106 FILLER_30_321
*1107 FILLER_30_329
*1108 FILLER_30_34
*1109 FILLER_30_37
*1110 FILLER_30_53
*1111 FILLER_30_79
*1112 FILLER_31_104
*1113 FILLER_31_130
*1114 FILLER_31_138
*1115 FILLER_31_144
*1116 FILLER_31_169
*1117 FILLER_31_18
*1118 FILLER_31_195
*1119 FILLER_31_2
*1120 FILLER_31_211
*1121 FILLER_31_215
*1122 FILLER_31_240
*1123 FILLER_31_266
*1124 FILLER_31_282
*1125 FILLER_31_286
*1126 FILLER_31_311
*1127 FILLER_31_327
*1128 FILLER_31_44
*1129 FILLER_31_70
*1130 FILLER_31_73
*1131 FILLER_31_77
*1132 FILLER_31_79
*1133 FILLER_32_105
*1134 FILLER_32_108
*1135 FILLER_32_133
*1136 FILLER_32_159
*1137 FILLER_32_175
*1138 FILLER_32_179
*1139 FILLER_32_2
*1140 FILLER_32_204
*1141 FILLER_32_230
*1142 FILLER_32_246
*1143 FILLER_32_250
*1144 FILLER_32_275
*1145 FILLER_32_301
*1146 FILLER_32_317
*1147 FILLER_32_321
*1148 FILLER_32_329
*1149 FILLER_32_34
*1150 FILLER_32_37
*1151 FILLER_32_53
*1152 FILLER_32_79
*1153 FILLER_33_104
*1154 FILLER_33_130
*1155 FILLER_33_138
*1156 FILLER_33_144
*1157 FILLER_33_169
*1158 FILLER_33_18
*1159 FILLER_33_195
*1160 FILLER_33_2
*1161 FILLER_33_211
*1162 FILLER_33_215
*1163 FILLER_33_240
*1164 FILLER_33_266
*1165 FILLER_33_282
*1166 FILLER_33_286
*1167 FILLER_33_311
*1168 FILLER_33_327
*1169 FILLER_33_44
*1170 FILLER_33_70
*1171 FILLER_33_73
*1172 FILLER_33_77
*1173 FILLER_33_79
*1174 FILLER_34_105
*1175 FILLER_34_108
*1176 FILLER_34_133
*1177 FILLER_34_159
*1178 FILLER_34_175
*1179 FILLER_34_179
*1180 FILLER_34_2
*1181 FILLER_34_204
*1182 FILLER_34_230
*1183 FILLER_34_246
*1184 FILLER_34_250
*1185 FILLER_34_275
*1186 FILLER_34_301
*1187 FILLER_34_317
*1188 FILLER_34_321
*1189 FILLER_34_329
*1190 FILLER_34_34
*1191 FILLER_34_37
*1192 FILLER_34_53
*1193 FILLER_34_79
*1194 FILLER_35_104
*1195 FILLER_35_130
*1196 FILLER_35_138
*1197 FILLER_35_144
*1198 FILLER_35_169
*1199 FILLER_35_18
*1200 FILLER_35_195
*1201 FILLER_35_2
*1202 FILLER_35_211
*1203 FILLER_35_215
*1204 FILLER_35_240
*1205 FILLER_35_266
*1206 FILLER_35_282
*1207 FILLER_35_286
*1208 FILLER_35_311
*1209 FILLER_35_327
*1210 FILLER_35_44
*1211 FILLER_35_70
*1212 FILLER_35_73
*1213 FILLER_35_77
*1214 FILLER_35_79
*1215 FILLER_36_105
*1216 FILLER_36_108
*1217 FILLER_36_133
*1218 FILLER_36_159
*1219 FILLER_36_175
*1220 FILLER_36_179
*1221 FILLER_36_2
*1222 FILLER_36_204
*1223 FILLER_36_230
*1224 FILLER_36_246
*1225 FILLER_36_250
*1226 FILLER_36_275
*1227 FILLER_36_301
*1228 FILLER_36_317
*1229 FILLER_36_321
*1230 FILLER_36_329
*1231 FILLER_36_34
*1232 FILLER_36_37
*1233 FILLER_36_53
*1234 FILLER_36_79
*1235 FILLER_37_104
*1236 FILLER_37_130
*1237 FILLER_37_138
*1238 FILLER_37_144
*1239 FILLER_37_169
*1240 FILLER_37_18
*1241 FILLER_37_195
*1242 FILLER_37_2
*1243 FILLER_37_211
*1244 FILLER_37_215
*1245 FILLER_37_240
*1246 FILLER_37_266
*1247 FILLER_37_282
*1248 FILLER_37_286
*1249 FILLER_37_311
*1250 FILLER_37_327
*1251 FILLER_37_44
*1252 FILLER_37_70
*1253 FILLER_37_73
*1254 FILLER_37_77
*1255 FILLER_37_79
*1256 FILLER_38_105
*1257 FILLER_38_108
*1258 FILLER_38_133
*1259 FILLER_38_159
*1260 FILLER_38_175
*1261 FILLER_38_179
*1262 FILLER_38_2
*1263 FILLER_38_204
*1264 FILLER_38_230
*1265 FILLER_38_246
*1266 FILLER_38_250
*1267 FILLER_38_275
*1268 FILLER_38_301
*1269 FILLER_38_317
*1270 FILLER_38_321
*1271 FILLER_38_330
*1272 FILLER_38_34
*1273 FILLER_38_37