*SPEF "ieee 1481-1999"
*DESIGN "captune_1p"
*DATE "11:11:11 Fri 11 11, 1111"
*VENDOR "OpenRCX"
*PROGRAM "Parallel Extraction"
*VERSION "1.0"
*DESIGN_FLOW "NAME_SCOPE LOCAL" "PIN_CAP NONE"
*DIVIDER /
*DELIMITER :
*BUS_DELIMITER []
*T_UNIT 1 NS
*C_UNIT 1 PF
*R_UNIT 1 OHM
*L_UNIT 1 HENRY

*NAME_MAP
*1 cap
*2 tune[0]
*3 tune[10]
*4 tune[11]
*5 tune[12]
*6 tune[13]
*7 tune[14]
*8 tune[15]
*9 tune[16]
*10 tune[17]
*11 tune[18]
*12 tune[19]
*13 tune[1]
*14 tune[20]
*15 tune[21]
*16 tune[22]
*17 tune[23]
*18 tune[24]
*19 tune[25]
*20 tune[26]
*21 tune[27]
*22 tune[28]
*23 tune[29]
*24 tune[2]
*25 tune[30]
*26 tune[31]
*27 tune[32]
*28 tune[33]
*29 tune[34]
*30 tune[35]
*31 tune[36]
*32 tune[37]
*33 tune[38]
*34 tune[39]
*35 tune[3]
*36 tune[40]
*37 tune[41]
*38 tune[42]
*39 tune[43]
*40 tune[44]
*41 tune[45]
*42 tune[46]
*43 tune[47]
*44 tune[48]
*45 tune[49]
*46 tune[4]
*47 tune[50]
*48 tune[51]
*49 tune[52]
*50 tune[53]
*51 tune[54]
*52 tune[55]
*53 tune[56]
*54 tune[57]
*55 tune[58]
*56 tune[59]
*57 tune[5]
*58 tune[60]
*59 tune[61]
*60 tune[62]
*61 tune[63]
*62 tune[6]
*63 tune[7]
*64 tune[8]
*65 tune[9]
*68 gen_cap\[0\]\.loose_end
*69 gen_cap\[10\]\.loose_end
*70 gen_cap\[11\]\.loose_end
*71 gen_cap\[12\]\.loose_end
*72 gen_cap\[13\]\.loose_end
*73 gen_cap\[14\]\.loose_end
*74 gen_cap\[15\]\.loose_end
*75 gen_cap\[16\]\.loose_end
*76 gen_cap\[17\]\.loose_end
*77 gen_cap\[18\]\.loose_end
*78 gen_cap\[19\]\.loose_end
*79 gen_cap\[1\]\.loose_end
*80 gen_cap\[20\]\.loose_end
*81 gen_cap\[21\]\.loose_end
*82 gen_cap\[22\]\.loose_end
*83 gen_cap\[23\]\.loose_end
*84 gen_cap\[24\]\.loose_end
*85 gen_cap\[25\]\.loose_end
*86 gen_cap\[26\]\.loose_end
*87 gen_cap\[27\]\.loose_end
*88 gen_cap\[28\]\.loose_end
*89 gen_cap\[29\]\.loose_end
*90 gen_cap\[2\]\.loose_end
*91 gen_cap\[30\]\.loose_end
*92 gen_cap\[31\]\.loose_end
*93 gen_cap\[32\]\.loose_end
*94 gen_cap\[33\]\.loose_end
*95 gen_cap\[34\]\.loose_end
*96 gen_cap\[35\]\.loose_end
*97 gen_cap\[36\]\.loose_end
*98 gen_cap\[37\]\.loose_end
*99 gen_cap\[38\]\.loose_end
*100 gen_cap\[39\]\.loose_end
*101 gen_cap\[3\]\.loose_end
*102 gen_cap\[40\]\.loose_end
*103 gen_cap\[41\]\.loose_end
*104 gen_cap\[42\]\.loose_end
*105 gen_cap\[43\]\.loose_end
*106 gen_cap\[44\]\.loose_end
*107 gen_cap\[45\]\.loose_end
*108 gen_cap\[46\]\.loose_end
*109 gen_cap\[47\]\.loose_end
*110 gen_cap\[48\]\.loose_end
*111 gen_cap\[49\]\.loose_end
*112 gen_cap\[4\]\.loose_end
*113 gen_cap\[50\]\.loose_end
*114 gen_cap\[51\]\.loose_end
*115 gen_cap\[52\]\.loose_end
*116 gen_cap\[53\]\.loose_end
*117 gen_cap\[54\]\.loose_end
*118 gen_cap\[55\]\.loose_end
*119 gen_cap\[56\]\.loose_end
*120 gen_cap\[57\]\.loose_end
*121 gen_cap\[58\]\.loose_end
*122 gen_cap\[59\]\.loose_end
*123 gen_cap\[5\]\.loose_end
*124 gen_cap\[60\]\.loose_end
*125 gen_cap\[61\]\.loose_end
*126 gen_cap\[62\]\.loose_end
*127 gen_cap\[63\]\.loose_end
*128 gen_cap\[6\]\.loose_end
*129 gen_cap\[7\]\.loose_end
*130 gen_cap\[8\]\.loose_end
*131 gen_cap\[9\]\.loose_end
*132 FILLER_0_107
*133 FILLER_0_116
*134 FILLER_0_126
*135 FILLER_0_136
*136 FILLER_0_14
*137 FILLER_0_142
*138 FILLER_0_151
*139 FILLER_0_2
*140 FILLER_0_24
*141 FILLER_0_34
*142 FILLER_0_37
*143 FILLER_0_49
*144 FILLER_0_59
*145 FILLER_0_69
*146 FILLER_0_72
*147 FILLER_0_76
*148 FILLER_0_78
*149 FILLER_0_87
*150 FILLER_0_97
*151 FILLER_1_10
*152 FILLER_1_105
*153 FILLER_1_115
*154 FILLER_1_125
*155 FILLER_1_135
*156 FILLER_1_139
*157 FILLER_1_141
*158 FILLER_1_144
*159 FILLER_1_2
*160 FILLER_1_20
*161 FILLER_1_30
*162 FILLER_1_40
*163 FILLER_1_50
*164 FILLER_1_60
*165 FILLER_1_70
*166 FILLER_1_73
*167 FILLER_1_85
*168 FILLER_1_95
*169 FILLER_2_103
*170 FILLER_2_105
*171 FILLER_2_108
*172 FILLER_2_117
*173 FILLER_2_127
*174 FILLER_2_137
*175 FILLER_2_14
*176 FILLER_2_147
*177 FILLER_2_151
*178 FILLER_2_2
*179 FILLER_2_24
*180 FILLER_2_34
*181 FILLER_2_37
*182 FILLER_2_49
*183 FILLER_2_59
*184 FILLER_2_69
*185 FILLER_2_79
*186 FILLER_2_89
*187 FILLER_2_93
*188 FILLER_3_10
*189 FILLER_3_106
*190 FILLER_3_115
*191 FILLER_3_125
*192 FILLER_3_135
*193 FILLER_3_139
*194 FILLER_3_141
*195 FILLER_3_144
*196 FILLER_3_2
*197 FILLER_3_20
*198 FILLER_3_30
*199 FILLER_3_40
*200 FILLER_3_50
*201 FILLER_3_60
*202 FILLER_3_70
*203 FILLER_3_73
*204 FILLER_3_82
*205 FILLER_3_98
*206 FILLER_4_103
*207 FILLER_4_105
*208 FILLER_4_108
*209 FILLER_4_120
*210 FILLER_4_130
*211 FILLER_4_14
*212 FILLER_4_140
*213 FILLER_4_150
*214 FILLER_4_2
*215 FILLER_4_24
*216 FILLER_4_34
*217 FILLER_4_37
*218 FILLER_4_45
*219 FILLER_4_55
*220 FILLER_4_87
*221 FILLER_5_105
*222 FILLER_5_113
*223 FILLER_5_123
*224 FILLER_5_133
*225 FILLER_5_141
*226 FILLER_5_144
*227 FILLER_5_16
*228 FILLER_5_2
*229 FILLER_5_26
*230 FILLER_5_36
*231 FILLER_5_6
*232 FILLER_5_68
*233 FILLER_5_70
*234 FILLER_5_73
*235 FILLER_6_104
*236 FILLER_6_107
*237 FILLER_6_123
*238 FILLER_6_127
*239 FILLER_6_136
*240 FILLER_6_142
*241 FILLER_6_151
*242 FILLER_6_16
*243 FILLER_6_2
*244 FILLER_6_26
*245 FILLER_6_34
*246 FILLER_6_37
*247 FILLER_6_6
*248 FILLER_6_69
*249 FILLER_6_72
*250 PHY_0
*251 PHY_1
*252 PHY_10
*253 PHY_11
*254 PHY_12
*255 PHY_13
*256 PHY_2
*257 PHY_3
*258 PHY_4
*259 PHY_5
*260 PHY_6
*261 PHY_7
*262 PHY_8
*263 PHY_9
*264 TAP_14
*265 TAP_15
*266 TAP_16
*267 TAP_17
*268 TAP_18
*269 TAP_19
*270 TAP_20
*271 TAP_21
*272 TAP_22
*273 TAP_23
*274 TAP_24
*275 TAP_25
*276 TAP_26
*277 TAP_27
*278 TAP_28
*279 TAP_29
*280 TAP_30
*281 TAP_31
*282 gen_cap\[0\]\.u_cap
*283 gen_cap\[10\]\.u_cap
*284 gen_cap\[11\]\.u_cap
*285 gen_cap\[12\]\.u_cap
*286 gen_cap\[13\]\.u_cap
*287 gen_cap\[14\]\.u_cap
*288 gen_cap\[15\]\.u_cap
*289 gen_cap\[16\]\.u_cap
*290 gen_cap\[17\]\.u_cap
*291 gen_cap\[18\]\.u_cap
*292 gen_cap\[19\]\.u_cap
*293 gen_cap\[1\]\.u_cap
*294 gen_cap\[20\]\.u_cap
*295 gen_cap\[21\]\.u_cap
*296 gen_cap\[22\]\.u_cap
*297 gen_cap\[23\]\.u_cap
*298 gen_cap\[24\]\.u_cap
*299 gen_cap\[25\]\.u_cap
*300 gen_cap\[26\]\.u_cap
*301 gen_cap\[27\]\.u_cap
*302 gen_cap\[28\]\.u_cap
*303 gen_cap\[29\]\.u_cap
*304 gen_cap\[2\]\.u_cap
*305 gen_cap\[30\]\.u_cap
*306 gen_cap\[31\]\.u_cap
*307 gen_cap\[32\]\.u_cap
*308 gen_cap\[33\]\.u_cap
*309 gen_cap\[34\]\.u_cap
*310 gen_cap\[35\]\.u_cap
*311 gen_cap\[36\]\.u_cap
*312 gen_cap\[37\]\.u_cap
*313 gen_cap\[38\]\.u_cap
*314 gen_cap\[39\]\.u_cap
*315 gen_cap\[3\]\.u_cap
*316 gen_cap\[40\]\.u_cap
*317 gen_cap\[41\]\.u_cap
*318 gen_cap\[42\]\.u_cap
*319 gen_cap\[43\]\.u_cap
*320 gen_cap\[44\]\.u_cap
*321 gen_cap\[45\]\.u_cap
*322 gen_cap\[46\]\.u_cap
*323 gen_cap\[47\]\.u_cap
*324 gen_cap\[48\]\.u_cap
*325 gen_cap\[49\]\.u_cap
*326 gen_cap\[4\]\.u_cap
*327 gen_cap\[50\]\.u_cap
*328 gen_cap\[51\]\.u_cap
*329 gen_cap\[52\]\.u_cap
*330 gen_cap\[53\]\.u_cap
*331 gen_cap\[54\]\.u_cap
*332 gen_cap\[55\]\.u_cap
*333 gen_cap\[56\]\.u_cap
*334 gen_cap\[57\]\.u_cap
*335 gen_cap\[58\]\.u_cap
*336 gen_cap\[59\]\.u_cap
*337 gen_cap\[5\]\.u_cap
*338 gen_cap\[60\]\.u_cap
*339 gen_cap\[61\]\.u_cap
*340 gen_cap\[62\]\.u_cap
*341 gen_cap\[63\]\.u_cap
*342 gen_cap\[6\]\.u_cap
*343 gen_cap\[7\]\.u_cap
*344 gen_cap\[8\]\.u_cap
*345 gen_cap\[9\]\.u_cap

*PORTS
cap I
tune[0] I
tune[10] I
tune[11] I
tune[12] I
tune[13] I
tune[14] I
tune[15] I
tune[16] I
tune[17] I
tune[18] I
tune[19] I
tune[1] I
tune[20] I
tune[21] I
tune[22] I
tune[23] I
tune[24] I
tune[25] I
tune[26] I
tune[27] I
tune[28] I
tune[29] I
tune[2] I
tune[30] I
tune[31] I
tune[32] I
tune[33] I
tune[34] I
tune[35] I
tune[36] I
tune[37] I
tune[38] I
tune[39] I
tune[3] I
tune[40] I
tune[41] I
tune[42] I
tune[43] I
tune[44] I
tune[45] I
tune[46] I
tune[47] I
tune[48] I
tune[49] I
tune[4] I
tune[50] I
tune[51] I
tune[52] I
tune[53] I
tune[54] I
tune[55] I
tune[56] I
tune[57] I
tune[58] I
tune[59] I
tune[5] I
tune[60] I
tune[61] I
tune[62] I
tune[63] I
tune[6] I
tune[7] I
tune[8] I
tune[9] I

*D_NET *1 0.0689692
*CONN
*P cap I
*I *301:B I *D gf180mcu_fd_sc_mcu7t5v0__aoi21_1
*I *340:B I *D gf180mcu_fd_sc_mcu7t5v0__aoi21_1
*I *338:B I *D gf180mcu_fd_sc_mcu7t5v0__aoi21_1
*I *333:B I *D gf180mcu_fd_sc_mcu7t5v0__aoi21_1
*I *341:B I *D gf180mcu_fd_sc_mcu7t5v0__aoi21_1
*I *336:B I *D gf180mcu_fd_sc_mcu7t5v0__aoi21_1
*I *334:B I *D gf180mcu_fd_sc_mcu7t5v0__aoi21_1
*I *331:B I *D gf180mcu_fd_sc_mcu7t5v0__aoi21_1
*I *327:B I *D gf180mcu_fd_sc_mcu7t5v0__aoi21_1
*I *332:B I *D gf180mcu_fd_sc_mcu7t5v0__aoi21_1
*I *330:B I *D gf180mcu_fd_sc_mcu7t5v0__aoi21_1
*I *325:B I *D gf180mcu_fd_sc_mcu7t5v0__aoi21_1
*I *322:B I *D gf180mcu_fd_sc_mcu7t5v0__aoi21_1
*I *329:B I *D gf180mcu_fd_sc_mcu7t5v0__aoi21_1
*I *323:B I *D gf180mcu_fd_sc_mcu7t5v0__aoi21_1
*I *320:B I *D gf180mcu_fd_sc_mcu7t5v0__aoi21_1
*I *328:B I *D gf180mcu_fd_sc_mcu7t5v0__aoi21_1
*I *335:B I *D gf180mcu_fd_sc_mcu7t5v0__aoi21_1
*I *339:B I *D gf180mcu_fd_sc_mcu7t5v0__aoi21_1
*I *324:B I *D gf180mcu_fd_sc_mcu7t5v0__aoi21_1
*I *321:B I *D gf180mcu_fd_sc_mcu7t5v0__aoi21_1
*I *317:B I *D gf180mcu_fd_sc_mcu7t5v0__aoi21_1
*I *319:B I *D gf180mcu_fd_sc_mcu7t5v0__aoi21_1
*I *318:B I *D gf180mcu_fd_sc_mcu7t5v0__aoi21_1
*I *316:B I *D gf180mcu_fd_sc_mcu7t5v0__aoi21_1
*I *314:B I *D gf180mcu_fd_sc_mcu7t5v0__aoi21_1
*I *313:B I *D gf180mcu_fd_sc_mcu7t5v0__aoi21_1
*I *310:B I *D gf180mcu_fd_sc_mcu7t5v0__aoi21_1
*I *311:B I *D gf180mcu_fd_sc_mcu7t5v0__aoi21_1
*I *308:B I *D gf180mcu_fd_sc_mcu7t5v0__aoi21_1
*I *305:B I *D gf180mcu_fd_sc_mcu7t5v0__aoi21_1
*I *299:B I *D gf180mcu_fd_sc_mcu7t5v0__aoi21_1
*I *297:B I *D gf180mcu_fd_sc_mcu7t5v0__aoi21_1
*I *291:B I *D gf180mcu_fd_sc_mcu7t5v0__aoi21_1
*I *303:B I *D gf180mcu_fd_sc_mcu7t5v0__aoi21_1
*I *306:B I *D gf180mcu_fd_sc_mcu7t5v0__aoi21_1
*I *292:B I *D gf180mcu_fd_sc_mcu7t5v0__aoi21_1
*I *298:B I *D gf180mcu_fd_sc_mcu7t5v0__aoi21_1
*I *302:B I *D gf180mcu_fd_sc_mcu7t5v0__aoi21_1
*I *295:B I *D gf180mcu_fd_sc_mcu7t5v0__aoi21_1
*I *344:B I *D gf180mcu_fd_sc_mcu7t5v0__aoi21_1
*I *287:B I *D gf180mcu_fd_sc_mcu7t5v0__aoi21_1
*I *283:B I *D gf180mcu_fd_sc_mcu7t5v0__aoi21_1
*I *345:B I *D gf180mcu_fd_sc_mcu7t5v0__aoi21_1
*I *304:B I *D gf180mcu_fd_sc_mcu7t5v0__aoi21_1
*I *326:B I *D gf180mcu_fd_sc_mcu7t5v0__aoi21_1
*I *337:B I *D gf180mcu_fd_sc_mcu7t5v0__aoi21_1
*I *282:B I *D gf180mcu_fd_sc_mcu7t5v0__aoi21_1
*I *293:B I *D gf180mcu_fd_sc_mcu7t5v0__aoi21_1
*I *315:B I *D gf180mcu_fd_sc_mcu7t5v0__aoi21_1
*I *343:B I *D gf180mcu_fd_sc_mcu7t5v0__aoi21_1
*I *286:B I *D gf180mcu_fd_sc_mcu7t5v0__aoi21_1
*I *288:B I *D gf180mcu_fd_sc_mcu7t5v0__aoi21_1
*I *296:B I *D gf180mcu_fd_sc_mcu7t5v0__aoi21_1
*I *289:B I *D gf180mcu_fd_sc_mcu7t5v0__aoi21_1
*I *284:B I *D gf180mcu_fd_sc_mcu7t5v0__aoi21_1
*I *285:B I *D gf180mcu_fd_sc_mcu7t5v0__aoi21_1
*I *290:B I *D gf180mcu_fd_sc_mcu7t5v0__aoi21_1
*I *342:B I *D gf180mcu_fd_sc_mcu7t5v0__aoi21_1
*I *294:B I *D gf180mcu_fd_sc_mcu7t5v0__aoi21_1
*I *307:B I *D gf180mcu_fd_sc_mcu7t5v0__aoi21_1
*I *309:B I *D gf180mcu_fd_sc_mcu7t5v0__aoi21_1
*I *312:B I *D gf180mcu_fd_sc_mcu7t5v0__aoi21_1
*I *300:B I *D gf180mcu_fd_sc_mcu7t5v0__aoi21_1
*CAP
1 cap 0.000904558
2 *301:B 0
3 *340:B 0
4 *338:B 0.000112994
5 *333:B 0
6 *341:B 0.00031675
7 *336:B 0
8 *334:B 0
9 *331:B 5.86959e-05
10 *327:B 0
11 *332:B 0.000226681
12 *330:B 4.80818e-05
13 *325:B 6.74936e-05
14 *322:B 2.59718e-05
15 *329:B 0.000136506
16 *323:B 0
17 *320:B 2.29242e-05
18 *328:B 5.65079e-05
19 *335:B 0
20 *339:B 0
21 *324:B 0
22 *321:B 4.72559e-06
23 *317:B 0.000106661
24 *319:B 0
25 *318:B 8.14202e-05
26 *316:B 0
27 *314:B 0.000106621
28 *313:B 0
29 *310:B 9.43214e-05
30 *311:B 0
31 *308:B 4.11587e-05
32 *305:B 0
33 *299:B 0
34 *297:B 2.67812e-05
35 *291:B 0.000103347
36 *303:B 2.67812e-05
37 *306:B 4.97787e-05
38 *292:B 8.17033e-05
39 *298:B 0
40 *302:B 8.34954e-05
41 *295:B 0
42 *344:B 0.000192119
43 *287:B 0
44 *283:B 0
45 *345:B 9.87417e-05
46 *304:B 0.000105205
47 *326:B 0
48 *337:B 0
49 *282:B 7.17661e-05
50 *293:B 0
51 *315:B 0
52 *343:B 0
53 *286:B 0.000188219
54 *288:B 0
55 *296:B 8.47416e-05
56 *289:B 4.18078e-05
57 *284:B 0
58 *285:B 0
59 *290:B 8.12534e-05
60 *342:B 0
61 *294:B 5.9226e-05
62 *307:B 0
63 *309:B 8.10259e-05
64 *312:B 3.5001e-05
65 *300:B 0.000235018
66 *1:502 0.000441956
67 *1:493 0.00032455
68 *1:459 0.000347084
69 *1:448 0.000242667
70 *1:425 0.000187069
71 *1:416 0.000128525
72 *1:414 0.000102976
73 *1:412 0.000137017
74 *1:410 4.85688e-05
75 *1:398 0.00015569
76 *1:397 0.00016466
77 *1:393 0.000324506
78 *1:391 0.00022039
79 *1:386 0.000246413
80 *1:381 0.0004592
81 *1:373 0.0003874
82 *1:365 0.000249452
83 *1:355 0.000193707
84 *1:339 0.000120108
85 *1:338 0.000173562
86 *1:323 8.14202e-05
87 *1:321 0.000145311
88 *1:308 0.000296147
89 *1:301 0.000233512
90 *1:292 0.000337771
91 *1:258 0.000226545
92 *1:244 0.000123317
93 *1:243 0.000143173
94 *1:223 0.000144352
95 *1:221 0.00015595
96 *1:216 1.33906e-05
97 *1:180 0.00017038
98 *1:175 0.000247771
99 *1:168 0.000160848
100 *1:156 0.000253541
101 *1:129 0.000132815
102 *1:118 0.00014586
103 *1:111 0.000107976
104 *1:95 0.000114562
105 *1:92 0.000219487
106 *1:89 0.000511594
107 *1:88 0.000499066
108 *1:85 0.000253127
109 *1:78 0.000160694
110 *1:74 0.000310256
111 *1:71 0.000496045
112 *1:64 0.000308225
113 *1:60 0.000330316
114 *1:58 0.00044766
115 *1:55 0.00030604
116 *1:42 0.000202895
117 *1:38 0.00025413
118 *1:36 0.000195444
119 *1:35 0.000183828
120 *1:27 0.00022252
121 *1:25 0.000408593
122 *1:9 0.00136065
123 *282:B *2:13 0.000225045
124 *286:B *35:17 0.00165714
125 *289:B *46:13 0.000265962
126 *289:B *57:15 0.000797884
127 *290:B *2:13 0.00104339
128 *290:B *6:12 0.000559528
129 *290:B *35:17 0.0006631
130 *291:B *291:A1 3.68254e-05
131 *291:B *11:5 0.000147302
132 *291:B *17:11 0
133 *292:B *7:9 0.000240388
134 *292:B *11:5 4.60318e-05
135 *294:B *3:15 0.00042963
136 *294:B *4:10 0.000184127
137 *294:B *65:5 0.000122715
138 *296:B *3:15 0.00042963
139 *296:B *24:25 0.00153439
140 *296:B *57:15 8.95063e-06
141 *296:B *62:12 6.13758e-05
142 *296:B *63:15 0.00116614
143 *296:B *64:13 3.68254e-05
144 *300:B *21:15 0
145 *302:B *7:9 0.00104339
146 *302:B *8:14 0.000184127
147 *302:B *9:12 0.000245503
148 *302:B *11:5 0
149 *304:B *24:25 0.000491006
150 *304:B *57:15 0
151 *306:B *12:8 0.00104339
152 *306:B *14:11 0.000675133
153 *306:B *15:15 0.000122752
154 *308:B *21:15 9.8457e-05
155 *308:B *25:8 0.000675133
156 *309:B *17:11 4.09172e-05
157 *309:B *18:8 0.000920636
158 *309:B *19:11 0.000675133
159 *309:B *20:9 4.47532e-05
160 *310:B *30:9 7.59525e-05
161 *312:B *28:7 0.00104339
162 *312:B *30:9 0.000347796
163 *314:B *36:9 0.000505071
164 *314:B *38:9 0.000860539
165 *317:B *319:A1 3.68254e-05
166 *317:B *47:11 0.000675133
167 *317:B *48:9 0.000184127
168 *318:B *38:9 9.8457e-05
169 *318:B *41:12 0.000675133
170 *320:B *53:9 3.0688e-05
171 *321:B *48:9 3.68254e-05
172 *322:B *50:14 2.79764e-05
173 *322:B *52:11 6.21697e-05
174 *325:B *56:14 6.26385e-05
175 *325:B *58:9 0.00042963
176 *328:B *51:25 4.53321e-05
177 *328:B *60:19 0.000184127
178 *329:B *329:A1 0.000435189
179 *329:B *49:12 0.00136751
180 *329:B *52:11 5.59527e-05
181 *329:B *60:19 0.000145026
182 *330:B *56:14 0.000306879
183 *330:B *58:9 4.47532e-05
184 *331:B *50:14 0
185 *331:B *54:15 0.000265725
186 *331:B *58:9 0.000184127
187 *332:B *52:11 2.68519e-05
188 *332:B *61:7 1.38095e-05
189 *338:B *335:A1 3.06879e-06
190 *338:B *55:13 1.22751e-05
191 *338:B *58:9 0.000107408
192 *341:B *61:7 0
193 *344:B *345:A1 6.13758e-05
194 *344:B *64:13 0.000125309
195 *344:B *65:5 0.000204586
196 *345:B *337:A1 0.00012434
197 *1:25 *301:A1 4.83334e-05
198 *1:25 *21:15 6.90477e-06
199 *1:25 *28:7 0
200 *1:27 *21:15 1.22751e-05
201 *1:27 *28:7 0.000613757
202 *1:27 *30:9 0.000225045
203 *1:36 *29:8 0
204 *1:38 *25:8 2.09823e-05
205 *1:38 *26:12 0
206 *1:38 *29:8 0
207 *1:42 *305:A1 4.89586e-05
208 *1:42 *307:A1 0.000559528
209 *1:42 *23:8 0.000165786
210 *1:42 *25:8 6.99409e-05
211 *1:42 *26:12 0
212 *1:55 *17:11 0.000147302
213 *1:55 *20:9 0.000159577
214 *1:58 *15:15 4.97357e-05
215 *1:58 *18:8 0
216 *1:58 *23:8 0
217 *1:60 *292:A1 0
218 *1:60 *298:A1 0
219 *1:60 *9:12 0
220 *1:60 *12:8 0
221 *1:60 *14:11 0
222 *1:60 *15:15 0.000136773
223 *1:64 *8:14 0.000932547
224 *1:71 *7:9 1.53439e-05
225 *1:71 *65:5 0.000327337
226 *1:74 *288:A1 0
227 *1:74 *337:A1 6.99409e-06
228 *1:74 *4:10 0
229 *1:74 *8:14 0
230 *1:74 *62:12 4.97357e-05
231 *1:78 *337:A1 6.29468e-05
232 *1:78 *342:A1 8.70153e-05
233 *1:78 *62:12 0.000111883
234 *1:85 *2:13 0.000797884
235 *1:85 *35:17 7.59525e-05
236 *1:89 *35:17 0.00165714
237 *1:92 *63:15 2.09823e-05
238 *1:95 *2:13 0.000797884
239 *1:95 *35:17 2.07143e-05
240 *1:95 *63:15 0.000552382
241 *1:111 *342:A1 2.09823e-05
242 *1:111 *63:15 5.59527e-05
243 *1:118 *284:A1 0.000435189
244 *1:118 *342:A1 3.49705e-05
245 *1:118 *4:10 4.14464e-05
246 *1:118 *62:12 5.59527e-05
247 *1:118 *63:15 2.09823e-05
248 *1:129 *4:10 0.000165786
249 *1:129 *62:12 3.49705e-05
250 *1:156 *315:A2 0
251 *1:156 *2:13 0.000107408
252 *1:156 *35:17 0
253 *1:175 *337:A1 0.000435078
254 *1:180 *304:A2 3.06879e-06
255 *1:180 *337:A1 6.13757e-05
256 *1:180 *24:25 0.000159577
257 *1:180 *46:13 0.000756967
258 *1:180 *57:15 0
259 *1:223 *7:9 0.000245503
260 *1:223 *11:5 2.45503e-05
261 *1:223 *15:15 4.47532e-05
262 *1:244 *12:8 0.000736509
263 *1:244 *15:15 0.00014321
264 *1:244 *17:11 0
265 *1:244 *19:11 2.76191e-05
266 *1:258 *12:8 0.00085926
267 *1:258 *17:11 0
268 *1:292 *311:A1 0.000435189
269 *1:292 *312:A1 0
270 *1:292 *29:8 0
271 *1:308 *316:A1 0.000186509
272 *1:321 *316:A1 0.000248679
273 *1:321 *39:12 7.46036e-05
274 *1:338 *321:A1 2.79764e-05
275 *1:338 *39:12 3.73018e-05
276 *1:338 *41:12 9.09232e-05
277 *1:338 *42:8 0.000932547
278 *1:339 *319:A1 6.13757e-05
279 *1:339 *44:13 4.09172e-05
280 *1:339 *48:9 1.38095e-05
281 *1:355 *44:13 0.000148325
282 *1:355 *48:9 8.28573e-05
283 *1:365 *44:13 3.68254e-05
284 *1:365 *48:9 0.000159533
285 *1:373 *60:19 0
286 *1:386 *339:A1 0
287 *1:393 *55:13 0.000184127
288 *1:393 *60:19 4.2963e-05
289 *1:397 *53:9 0.000184127
290 *1:397 *55:13 0.000135027
291 *1:397 *60:19 6.13757e-06
292 *1:398 *50:14 0
293 *1:398 *51:25 3.62657e-05
294 *1:410 *53:9 0.00116614
295 *1:410 *60:19 0.00110476
296 *1:412 *53:9 0.000306879
297 *1:412 *60:19 0.000245503
298 *1:414 *53:9 0.000552382
299 *1:414 *60:19 0.000491006
300 *1:416 *52:11 8.18344e-05
301 *1:416 *53:9 0.00104328
302 *1:416 *60:19 0.000797775
303 *1:425 *323:A1 0.000373019
304 *1:425 *43:8 0.000435189
305 *1:425 *49:12 0.00105689
306 *1:425 *60:19 8.28929e-05
307 *1:448 *325:A1 4.89586e-05
308 *1:448 *330:A1 0.000373019
309 *1:448 *50:14 0.000683868
310 *1:448 *52:11 0
311 *1:459 *330:A1 6.21698e-05
312 *1:493 *56:14 0.000186509
313 *1:502 *336:A1 0.000435189
314 *1:502 *56:14 0.000621698
*RES
1 cap *1:9 8.325 
2 *1:9 *300:B 15.48 
3 *1:9 *1:25 2.25 
4 *1:25 *1:27 2.43 
5 *1:27 *312:B 6.03 
6 *1:27 *1:35 4.5 
7 *1:35 *1:36 0.45 
8 *1:36 *1:38 1.17 
9 *1:38 *1:42 6.21 
10 *1:42 *309:B 6.3 
11 *1:42 *307:B 4.5 
12 *1:42 *1:55 1.17 
13 *1:55 *1:58 6.57 
14 *1:58 *1:60 1.89 
15 *1:60 *1:64 6.21 
16 *1:64 *294:B 5.67 
17 *1:64 *1:71 1.53 
18 *1:71 *1:74 6.39 
19 *1:74 *1:78 6.39 
20 *1:78 *342:B 4.5 
21 *1:78 *1:85 5.67 
22 *1:85 *1:88 5.67 
23 *1:88 *1:89 2.61 
24 *1:89 *1:92 5.67 
25 *1:92 *1:95 5.67 
26 *1:95 *290:B 15.84 
27 *1:95 *285:B 4.5 
28 *1:92 *1:111 0.81 
29 *1:111 *284:B 9 
30 *1:111 *1:118 1.17 
31 *1:118 *289:B 10.17 
32 *1:118 *1:129 5.31 
33 *1:129 *296:B 7.11 
34 *1:129 *288:B 4.5 
35 *1:89 *286:B 7.11 
36 *1:89 *343:B 4.5 
37 *1:88 *315:B 4.5 
38 *1:88 *1:156 1.98 
39 *1:156 *293:B 4.5 
40 *1:156 *282:B 5.49 
41 *1:85 *1:168 0.81 
42 *1:168 *337:B 9 
43 *1:168 *1:175 0.99 
44 *1:175 *1:180 6.12 
45 *1:180 *326:B 4.5 
46 *1:180 *304:B 5.94 
47 *1:175 *345:B 9.99 
48 *1:74 *283:B 9 
49 *1:71 *287:B 4.5 
50 *1:71 *344:B 6.93 
51 *1:60 *1:216 4.5 
52 *1:216 *295:B 4.5 
53 *1:216 *1:221 0.27 
54 *1:221 *1:223 1.17 
55 *1:223 *302:B 6.3 
56 *1:223 *298:B 4.5 
57 *1:221 *292:B 5.85 
58 *1:58 *1:243 4.5 
59 *1:243 *1:244 1.17 
60 *1:244 *306:B 6.03 
61 *1:244 *303:B 4.77 
62 *1:243 *1:258 1.35 
63 *1:258 *291:B 5.85 
64 *1:258 *297:B 4.77 
65 *1:243 *299:B 4.5 
66 *1:55 *305:B 4.5 
67 *1:38 *308:B 9.99 
68 *1:36 *311:B 9 
69 *1:35 *1:292 1.35 
70 *1:292 *310:B 9.99 
71 *1:292 *1:301 1.17 
72 *1:301 *313:B 9 
73 *1:301 *1:308 0.99 
74 *1:308 *314:B 11.25 
75 *1:308 *1:321 0.99 
76 *1:321 *1:323 4.5 
77 *1:323 *316:B 4.5 
78 *1:323 *318:B 5.94 
79 *1:321 *1:338 6.21 
80 *1:338 *1:339 0.27 
81 *1:339 *319:B 4.5 
82 *1:339 *317:B 6.3 
83 *1:338 *1:355 1.8 
84 *1:355 *321:B 4.77 
85 *1:355 *1:365 1.62 
86 *1:365 *324:B 4.5 
87 *1:365 *1:373 1.44 
88 *1:373 *339:B 4.5 
89 *1:373 *1:381 1.98 
90 *1:381 *1:386 10.89 
91 *1:386 *335:B 4.5 
92 *1:386 *1:391 0.27 
93 *1:391 *1:393 1.35 
94 *1:393 *1:397 5.49 
95 *1:397 *1:398 0.63 
96 *1:398 *328:B 9.72 
97 *1:398 *1:410 6.21 
98 *1:410 *1:412 0.45 
99 *1:412 *1:414 0.81 
100 *1:414 *1:416 1.53 
101 *1:416 *320:B 4.77 
102 *1:416 *1:425 6.03 
103 *1:425 *323:B 9 
104 *1:425 *329:B 11.79 
105 *1:414 *322:B 13.95 
106 *1:412 *1:448 6.03 
107 *1:448 *325:B 9.9 
108 *1:448 *1:459 0.63 
109 *1:459 *330:B 9.72 
110 *1:459 *332:B 10.98 
111 *1:410 *327:B 4.5 
112 *1:397 *331:B 10.26 
113 *1:393 *1:493 6.39 
114 *1:493 *334:B 9 
115 *1:493 *1:502 6.39 
116 *1:502 *336:B 4.5 
117 *1:502 *341:B 7.11 
118 *1:393 *333:B 4.5 
119 *1:391 *338:B 5.94 
120 *1:381 *340:B 4.5 
121 *1:25 *301:B 4.5 
*END

*D_NET *2 0.00950284
*CONN
*P tune[0] I
*I *282:A2 I *D gf180mcu_fd_sc_mcu7t5v0__aoi21_1
*I *282:A1 I *D gf180mcu_fd_sc_mcu7t5v0__aoi21_1
*CAP
1 tune[0] 0.000664931
2 *282:A2 5.85806e-05
3 *282:A1 0
4 *2:13 0.000723511
5 *282:A2 *293:A1 1.53439e-05
6 *282:A2 *13:11 3.06879e-06
7 *2:13 *293:A1 3.45239e-05
8 *2:13 *315:A2 3.68254e-05
9 *2:13 *13:11 0.00494842
10 *2:13 *35:17 4.60318e-05
11 *282:B *2:13 0.000225045
12 *290:B *2:13 0.00104339
13 *1:85 *2:13 0.000797884
14 *1:95 *2:13 0.000797884
15 *1:156 *2:13 0.000107408
*RES
1 tune[0] *2:13 13.005 
2 *2:13 *282:A1 4.5 
3 *2:13 *282:A2 5.13 
*END

*D_NET *3 0.0069239
*CONN
*P tune[10] I
*I *283:A2 I *D gf180mcu_fd_sc_mcu7t5v0__aoi21_1
*I *283:A1 I *D gf180mcu_fd_sc_mcu7t5v0__aoi21_1
*CAP
1 tune[10] 0.000283208
2 *283:A2 0
3 *283:A1 4.0919e-05
4 *3:15 0.000324127
5 *283:A1 *24:25 2.04586e-05
6 *3:15 *289:A1 1.81328e-05
7 *3:15 *296:A2 0.000306879
8 *3:15 *4:10 0.00185865
9 *3:15 *9:12 6.34649e-05
10 *3:15 *24:25 0.000253686
11 *3:15 *63:15 2.07232e-05
12 *3:15 *64:13 0.000961517
13 *3:15 *65:5 0.00191288
14 *294:B *3:15 0.00042963
15 *296:B *3:15 0.00042963
*RES
1 tune[10] *3:15 18.585 
2 *3:15 *283:A1 4.95 
3 *3:15 *283:A2 4.5 
*END

*D_NET *4 0.00662365
*CONN
*P tune[11] I
*I *284:A2 I *D gf180mcu_fd_sc_mcu7t5v0__aoi21_1
*I *284:A1 I *D gf180mcu_fd_sc_mcu7t5v0__aoi21_1
*CAP
1 tune[11] 0.000316419
2 *284:A2 0
3 *284:A1 2.49898e-05
4 *4:10 0.000341408
5 *284:A1 *63:15 5.43985e-05
6 *4:10 *288:A1 0.000435189
7 *4:10 *5:15 0.002097
8 *4:10 *8:14 0.000442067
9 *4:10 *9:12 4.19646e-05
10 *4:10 *14:11 3.58025e-05
11 *4:10 *63:15 0.000149207
12 *294:B *4:10 0.000184127
13 *1:74 *4:10 0
14 *1:118 *284:A1 0.000435189
15 *1:118 *4:10 4.14464e-05
16 *1:129 *4:10 0.000165786
17 *3:15 *4:10 0.00185865
*RES
1 tune[11] *4:10 13.905 
2 *4:10 *284:A1 9.63 
3 *4:10 *284:A2 9 
*END

*D_NET *5 0.00513937
*CONN
*P tune[12] I
*I *285:A2 I *D gf180mcu_fd_sc_mcu7t5v0__aoi21_1
*I *285:A1 I *D gf180mcu_fd_sc_mcu7t5v0__aoi21_1
*CAP
1 tune[12] 0.000361201
2 *285:A2 0
3 *285:A1 3.31072e-05
4 *5:15 0.000394309
5 *285:A1 *24:25 4.19646e-05
6 *285:A1 *63:15 0.000145026
7 *5:15 *289:A1 0.000186509
8 *5:15 *296:A1 8.70375e-05
9 *5:15 *6:12 0.000818344
10 *5:15 *7:9 2.07143e-05
11 *5:15 *8:14 7.16051e-05
12 *5:15 *9:12 0.000290125
13 *5:15 *10:18 3.49705e-05
14 *5:15 *13:11 4.47532e-05
15 *5:15 *14:11 1.22751e-05
16 *5:15 *16:8 0.000111905
17 *5:15 *24:25 0.000186509
18 *5:15 *46:13 0.000102293
19 *5:15 *63:15 9.97144e-05
20 *4:10 *5:15 0.002097
*RES
1 tune[12] *5:15 18.405 
2 *5:15 *285:A1 14.13 
3 *5:15 *285:A2 4.5 
*END

*D_NET *6 0.00716351
*CONN
*P tune[13] I
*I *286:A2 I *D gf180mcu_fd_sc_mcu7t5v0__aoi21_1
*I *286:A1 I *D gf180mcu_fd_sc_mcu7t5v0__aoi21_1
*CAP
1 tune[13] 0.000569308
2 *286:A2 0
3 *286:A1 3.15998e-05
4 *6:12 0.000600907
5 *286:A1 *35:17 0.000145063
6 *6:12 *290:A1 0.000310849
7 *6:12 *7:9 0.00176967
8 *6:12 *10:18 0.00223811
9 *6:12 *24:25 3.72796e-05
10 *6:12 *35:17 8.28559e-05
11 *290:B *6:12 0.000559528
12 *5:15 *6:12 0.000818344
*RES
1 tune[13] *6:12 14.355 
2 *6:12 *286:A1 9.63 
3 *6:12 *286:A2 9 
*END

*D_NET *7 0.00664529
*CONN
*P tune[14] I
*I *287:A2 I *D gf180mcu_fd_sc_mcu7t5v0__aoi21_1
*I *287:A1 I *D gf180mcu_fd_sc_mcu7t5v0__aoi21_1
*CAP
1 tune[14] 0.00031741
2 *287:A2 0
3 *287:A1 6.41846e-05
4 *7:9 0.000381595
5 *7:9 *8:14 0.00254709
6 *292:B *7:9 0.000240388
7 *302:B *7:9 0.00104339
8 *1:71 *7:9 1.53439e-05
9 *1:223 *7:9 0.000245503
10 *5:15 *7:9 2.07143e-05
11 *6:12 *7:9 0.00176967
*RES
1 tune[14] *7:9 8.865 
2 *7:9 *287:A1 5.13 
3 *7:9 *287:A2 4.5 
*END

*D_NET *8 0.00805242
*CONN
*P tune[15] I
*I *288:A2 I *D gf180mcu_fd_sc_mcu7t5v0__aoi21_1
*I *288:A1 I *D gf180mcu_fd_sc_mcu7t5v0__aoi21_1
*CAP
1 tune[15] 0.000302692
2 *288:A2 0
3 *288:A1 5.09564e-05
4 *8:14 0.000353649
5 *8:14 *9:12 0.00155524
6 *8:14 *10:18 0.000435189
7 *8:14 *14:11 0.000306879
8 *8:14 *16:8 0.000435189
9 *302:B *8:14 0.000184127
10 *1:64 *8:14 0.000932547
11 *1:74 *288:A1 0
12 *1:74 *8:14 0
13 *4:10 *288:A1 0.000435189
14 *4:10 *8:14 0.000442067
15 *5:15 *8:14 7.16051e-05
16 *7:9 *8:14 0.00254709
*RES
1 tune[15] *8:14 22.635 
2 *8:14 *288:A1 9.63 
3 *8:14 *288:A2 9 
*END

*D_NET *9 0.005284
*CONN
*P tune[16] I
*I *289:A2 I *D gf180mcu_fd_sc_mcu7t5v0__aoi21_1
*I *289:A1 I *D gf180mcu_fd_sc_mcu7t5v0__aoi21_1
*CAP
1 tune[16] 0.00042364
2 *289:A2 0
3 *289:A1 3.27617e-05
4 *9:12 0.000456401
5 *289:A1 *63:15 0.000145063
6 *9:12 *10:18 0.00142187
7 *9:12 *11:5 0.000103572
8 *9:12 *14:11 0.000227955
9 *9:12 *16:8 3.49705e-05
10 *9:12 *22:11 3.68254e-05
11 *302:B *9:12 0.000245503
12 *1:60 *9:12 0
13 *3:15 *289:A1 1.81328e-05
14 *3:15 *9:12 6.34649e-05
15 *4:10 *9:12 4.19646e-05
16 *5:15 *289:A1 0.000186509
17 *5:15 *9:12 0.000290125
18 *8:14 *9:12 0.00155524
*RES
1 tune[16] *9:12 13.455 
2 *9:12 *289:A1 9.81 
3 *9:12 *289:A2 9 
*END

*D_NET *10 0.00688725
*CONN
*P tune[17] I
*I *290:A2 I *D gf180mcu_fd_sc_mcu7t5v0__aoi21_1
*I *290:A1 I *D gf180mcu_fd_sc_mcu7t5v0__aoi21_1
*CAP
1 tune[17] 0.000368982
2 *290:A2 0
3 *290:A1 1.39308e-05
4 *10:18 0.000382913
5 *290:A1 *24:25 0.000103616
6 *10:18 *296:A1 0.000145063
7 *10:18 *302:A1 6.13758e-05
8 *10:18 *11:5 0.000836756
9 *10:18 *16:8 0.000347114
10 *10:18 *24:25 0.000186509
11 *5:15 *10:18 3.49705e-05
12 *6:12 *290:A1 0.000310849
13 *6:12 *10:18 0.00223811
14 *8:14 *10:18 0.000435189
15 *9:12 *10:18 0.00142187
*RES
1 tune[17] *10:18 14.085 
2 *10:18 *290:A1 9.45 
3 *10:18 *290:A2 9 
*END

*D_NET *11 0.00417266
*CONN
*P tune[18] I
*I *291:A1 I *D gf180mcu_fd_sc_mcu7t5v0__aoi21_1
*I *291:A2 I *D gf180mcu_fd_sc_mcu7t5v0__aoi21_1
*CAP
1 tune[18] 0.000399201
2 *291:A1 3.8781e-05
3 *291:A2 2.27827e-05
4 *11:5 0.000460765
5 *11:5 *12:8 0.00189242
6 *11:5 *15:15 0.000102293
7 *11:5 *22:11 6.13758e-05
8 *291:B *291:A1 3.68254e-05
9 *291:B *11:5 0.000147302
10 *292:B *11:5 4.60318e-05
11 *302:B *11:5 0
12 *1:223 *11:5 2.45503e-05
13 *9:12 *11:5 0.000103572
14 *10:18 *11:5 0.000836756
*RES
1 tune[18] *11:5 9.405 
2 *11:5 *291:A2 4.77 
3 *11:5 *291:A1 5.04 
*END

*D_NET *12 0.00619039
*CONN
*P tune[19] I
*I *292:A2 I *D gf180mcu_fd_sc_mcu7t5v0__aoi21_1
*I *292:A1 I *D gf180mcu_fd_sc_mcu7t5v0__aoi21_1
*CAP
1 tune[19] 0.000283244
2 *292:A2 0
3 *292:A1 3.98133e-05
4 *12:8 0.000323058
5 *12:8 *14:11 0.0010127
6 *306:B *12:8 0.00104339
7 *1:60 *292:A1 0
8 *1:60 *12:8 0
9 *1:244 *12:8 0.000736509
10 *1:258 *12:8 0.00085926
11 *11:5 *12:8 0.00189242
*RES
1 tune[19] *12:8 13.455 
2 *12:8 *292:A1 9.45 
3 *12:8 *292:A2 9 
*END

*D_NET *13 0.00803674
*CONN
*P tune[1] I
*I *293:A2 I *D gf180mcu_fd_sc_mcu7t5v0__aoi21_1
*I *293:A1 I *D gf180mcu_fd_sc_mcu7t5v0__aoi21_1
*CAP
1 tune[1] 0.000453781
2 *293:A2 0
3 *293:A1 2.30796e-05
4 *13:11 0.000476861
5 *13:11 *342:A1 0.000306879
6 *13:11 *24:25 0.00148325
7 *13:11 *46:13 0.000246782
8 *282:A2 *293:A1 1.53439e-05
9 *282:A2 *13:11 3.06879e-06
10 *2:13 *293:A1 3.45239e-05
11 *2:13 *13:11 0.00494842
12 *5:15 *13:11 4.47532e-05
*RES
1 tune[1] *13:11 11.655 
2 *13:11 *293:A1 4.95 
3 *13:11 *293:A2 4.5 
*END

*D_NET *14 0.0054179
*CONN
*P tune[20] I
*I *294:A2 I *D gf180mcu_fd_sc_mcu7t5v0__aoi21_1
*I *294:A1 I *D gf180mcu_fd_sc_mcu7t5v0__aoi21_1
*CAP
1 tune[20] 0.000243561
2 *294:A2 0
3 *294:A1 6.855e-05
4 *14:11 0.000312111
5 *14:11 *298:A1 0.000103616
6 *14:11 *15:15 0.0018515
7 *14:11 *16:8 0.000360584
8 *14:11 *18:8 0.000207232
9 *306:B *14:11 0.000675133
10 *1:60 *14:11 0
11 *4:10 *14:11 3.58025e-05
12 *5:15 *14:11 1.22751e-05
13 *8:14 *14:11 0.000306879
14 *9:12 *14:11 0.000227955
15 *12:8 *14:11 0.0010127
*RES
1 tune[20] *14:11 17.505 
2 *14:11 *294:A1 5.13 
3 *14:11 *294:A2 4.5 
*END

*D_NET *15 0.00455728
*CONN
*P tune[21] I
*I *295:A2 I *D gf180mcu_fd_sc_mcu7t5v0__aoi21_1
*I *295:A1 I *D gf180mcu_fd_sc_mcu7t5v0__aoi21_1
*CAP
1 tune[21] 0.000293612
2 *295:A2 0
3 *295:A1 6.24895e-05
4 *15:15 0.000356102
5 *15:15 *298:A1 2.71992e-05
6 *15:15 *303:A1 6.13758e-05
7 *15:15 *16:8 0.00104953
8 *15:15 *17:11 1.53439e-05
9 *15:15 *18:8 0.000117863
10 *15:15 *19:11 0.000122751
11 *306:B *15:15 0.000122752
12 *1:58 *15:15 4.97357e-05
13 *1:60 *15:15 0.000136773
14 *1:223 *15:15 4.47532e-05
15 *1:244 *15:15 0.00014321
16 *11:5 *15:15 0.000102293
17 *14:11 *15:15 0.0018515
*RES
1 tune[21] *15:15 17.685 
2 *15:15 *295:A1 5.13 
3 *15:15 *295:A2 4.5 
*END

*D_NET *16 0.0070129
*CONN
*P tune[22] I
*I *296:A2 I *D gf180mcu_fd_sc_mcu7t5v0__aoi21_1
*I *296:A1 I *D gf180mcu_fd_sc_mcu7t5v0__aoi21_1
*CAP
1 tune[22] 0.00030738
2 *296:A2 1.33931e-05
3 *296:A1 4.32601e-05
4 *16:8 0.000364033
5 *296:A1 *63:15 0.000306879
6 *296:A1 *64:13 0.000306879
7 *296:A2 *65:5 0.000306879
8 *16:8 *303:A1 1.81166e-05
9 *16:8 *17:11 0.00111496
10 *16:8 *18:8 3.49705e-05
11 *16:8 *19:11 1.24339e-05