*SPEF "ieee 1481-1999"
*DESIGN "dlc"
*DATE "11:11:11 Fri 11 11, 1111"
*VENDOR "OpenRCX"
*PROGRAM "Parallel Extraction"
*VERSION "1.0"
*DESIGN_FLOW "NAME_SCOPE LOCAL" "PIN_CAP NONE"
*DIVIDER /
*DELIMITER :
*BUS_DELIMITER []
*T_UNIT 1 NS
*C_UNIT 1 PF
*R_UNIT 1 OHM
*L_UNIT 1 HENRY

*NAME_MAP
*1 clk
*2 clko
*3 latch
*4 on
*5 op
*6 rst
*7 sdi
*8 sig
*11 trim_n\[0\]
*12 trim_n\[1\]
*13 trim_n\[2\]
*14 trim_n\[3\]
*15 trim_p\[0\]
*16 trim_p\[1\]
*17 trim_p\[2\]
*18 trim_p\[3\]
*19 u_trans0p\.outn
*20 u_trans0p\.outp
*21 ANTENNA__0__I
*22 ANTENNA_u_trans0p\.gen_FB\[0\]\.fbn_I
*23 ANTENNA_u_trans0p\.gen_FB\[0\]\.fbp_I
*24 ANTENNA_u_trans0p\.gen_FB\[1\]\.fbn_I
*25 ANTENNA_u_trans0p\.gen_FB\[1\]\.fbp_I
*26 ANTENNA_u_trans0p\.gen_FB\[2\]\.fbn_I
*27 ANTENNA_u_trans0p\.gen_FB\[2\]\.fbp_I
*28 ANTENNA_u_trans0p\.gen_FB\[3\]\.fbn_I
*29 ANTENNA_u_trans0p\.gen_FB\[3\]\.fbp_I
*30 ANTENNA_u_trans0p\.gen_T\[0\]\.thrun_I
*31 ANTENNA_u_trans0p\.gen_T\[0\]\.thrup_I
*32 ANTENNA_u_trans0p\.gen_T\[1\]\.thrun_I
*33 ANTENNA_u_trans0p\.gen_T\[1\]\.thrup_I
*34 ANTENNA_u_trans0p\.gen_T\[2\]\.thrun_I
*35 ANTENNA_u_trans0p\.gen_T\[2\]\.thrup_I
*36 ANTENNA_u_trans0p\.gen_T\[3\]\.thrun_I
*37 ANTENNA_u_trans0p\.gen_T\[3\]\.thrup_I
*38 ANTENNA_u_trans0p\.gen_T\[4\]\.thrun_I
*39 ANTENNA_u_trans0p\.gen_T\[4\]\.thrup_I
*40 ANTENNA_u_trans0p\.gen_T\[5\]\.thrun_I
*41 ANTENNA_u_trans0p\.gen_T\[5\]\.thrup_I
*42 ANTENNA_u_trans0p\.gen_T\[6\]\.thrun_I
*43 ANTENNA_u_trans0p\.gen_T\[6\]\.thrup_I
*44 ANTENNA_u_trans0p\.gen_T\[7\]\.thrun_I
*45 ANTENNA_u_trans0p\.gen_T\[7\]\.thrup_I
*46 ANTENNA_u_trans0p\.gen_T\[8\]\.thrun_I
*47 ANTENNA_u_trans0p\.gen_T\[8\]\.thrup_I
*48 ANTENNA_u_trans0p\.gen_T\[9\]\.thrun_I
*49 ANTENNA_u_trans0p\.gen_T\[9\]\.thrup_I
*50 ANTENNA_u_trans0p\.gen_X\[0\]\.crossn_I
*51 ANTENNA_u_trans0p\.gen_X\[0\]\.crossp_I
*52 ANTENNA_u_trans0p\.gen_X\[1\]\.crossn_I
*53 ANTENNA_u_trans0p\.gen_X\[1\]\.crossp_I
*54 ANTENNA_u_trans0p\.gen_X\[2\]\.crossn_I
*55 ANTENNA_u_trans0p\.gen_X\[2\]\.crossp_I
*56 ANTENNA_u_trans0p\.gen_X\[3\]\.crossn_I
*57 ANTENNA_u_trans0p\.gen_X\[3\]\.crossp_I
*58 ANTENNA_u_trans0p\.gen_X\[4\]\.crossn_I
*59 ANTENNA_u_trans0p\.gen_X\[4\]\.crossp_I
*60 ANTENNA_u_trans1p\.gen_FB\[0\]\.fbn_I
*61 ANTENNA_u_trans1p\.gen_FB\[0\]\.fbp_I
*62 ANTENNA_u_trans1p\.gen_FB\[1\]\.fbn_I
*63 ANTENNA_u_trans1p\.gen_FB\[1\]\.fbp_I
*64 ANTENNA_u_trans1p\.gen_FB\[2\]\.fbn_I
*65 ANTENNA_u_trans1p\.gen_FB\[2\]\.fbp_I
*66 ANTENNA_u_trans1p\.gen_FB\[3\]\.fbn_I
*67 ANTENNA_u_trans1p\.gen_FB\[3\]\.fbp_I
*68 ANTENNA_u_trans1p\.gen_T\[0\]\.thrun_I
*69 ANTENNA_u_trans1p\.gen_T\[0\]\.thrup_I
*70 ANTENNA_u_trans1p\.gen_T\[1\]\.thrun_I
*71 ANTENNA_u_trans1p\.gen_T\[1\]\.thrup_I
*72 ANTENNA_u_trans1p\.gen_T\[2\]\.thrun_I
*73 ANTENNA_u_trans1p\.gen_T\[2\]\.thrup_I
*74 ANTENNA_u_trans1p\.gen_T\[3\]\.thrun_I
*75 ANTENNA_u_trans1p\.gen_T\[3\]\.thrup_I
*76 ANTENNA_u_trans1p\.gen_T\[4\]\.thrun_I
*77 ANTENNA_u_trans1p\.gen_T\[4\]\.thrup_I
*78 ANTENNA_u_trans1p\.gen_T\[5\]\.thrun_I
*79 ANTENNA_u_trans1p\.gen_T\[5\]\.thrup_I
*80 ANTENNA_u_trans1p\.gen_T\[6\]\.thrun_I
*81 ANTENNA_u_trans1p\.gen_T\[6\]\.thrup_I
*82 ANTENNA_u_trans1p\.gen_T\[7\]\.thrun_I
*83 ANTENNA_u_trans1p\.gen_T\[7\]\.thrup_I
*84 ANTENNA_u_trans1p\.gen_T\[8\]\.thrun_I
*85 ANTENNA_u_trans1p\.gen_T\[8\]\.thrup_I
*86 ANTENNA_u_trans1p\.gen_T\[9\]\.thrun_I
*87 ANTENNA_u_trans1p\.gen_T\[9\]\.thrup_I
*88 ANTENNA_u_trans1p\.gen_X\[0\]\.crossn_I
*89 ANTENNA_u_trans1p\.gen_X\[0\]\.crossp_I
*90 ANTENNA_u_trans1p\.gen_X\[1\]\.crossn_I
*91 ANTENNA_u_trans1p\.gen_X\[1\]\.crossp_I
*92 ANTENNA_u_trans1p\.gen_X\[2\]\.crossn_I
*93 ANTENNA_u_trans1p\.gen_X\[2\]\.crossp_I
*94 ANTENNA_u_trans1p\.gen_X\[3\]\.crossn_I
*95 ANTENNA_u_trans1p\.gen_X\[3\]\.crossp_I
*96 ANTENNA_u_trans1p\.gen_X\[4\]\.crossn_I
*97 ANTENNA_u_trans1p\.gen_X\[4\]\.crossp_I
*98 FILLER_0_104
*99 FILLER_0_107
*100 FILLER_0_123
*101 FILLER_0_127
*102 FILLER_0_129
*103 FILLER_0_132
*104 FILLER_0_138
*105 FILLER_0_142
*106 FILLER_0_148
*107 FILLER_0_152
*108 FILLER_0_156
*109 FILLER_0_162
*110 FILLER_0_168
*111 FILLER_0_174
*112 FILLER_0_177
*113 FILLER_0_183
*114 FILLER_0_189
*115 FILLER_0_195
*116 FILLER_0_2
*117 FILLER_0_201
*118 FILLER_0_207
*119 FILLER_0_209
*120 FILLER_0_212
*121 FILLER_0_217
*122 FILLER_0_223
*123 FILLER_0_229
*124 FILLER_0_235
*125 FILLER_0_241
*126 FILLER_0_247
*127 FILLER_0_252
*128 FILLER_0_258
*129 FILLER_0_264
*130 FILLER_0_270
*131 FILLER_0_276
*132 FILLER_0_282
*133 FILLER_0_287
*134 FILLER_0_293
*135 FILLER_0_297
*136 FILLER_0_301
*137 FILLER_0_305
*138 FILLER_0_309
*139 FILLER_0_313
*140 FILLER_0_317
*141 FILLER_0_325
*142 FILLER_0_329
*143 FILLER_0_34
*144 FILLER_0_37
*145 FILLER_0_69
*146 FILLER_0_72
*147 FILLER_10_101
*148 FILLER_10_105
*149 FILLER_10_108
*150 FILLER_10_172
*151 FILLER_10_176
*152 FILLER_10_179
*153 FILLER_10_2
*154 FILLER_10_243
*155 FILLER_10_247
*156 FILLER_10_250
*157 FILLER_10_314
*158 FILLER_10_318
*159 FILLER_10_321
*160 FILLER_10_329
*161 FILLER_10_34
*162 FILLER_10_37
*163 FILLER_11_137
*164 FILLER_11_141
*165 FILLER_11_144
*166 FILLER_11_2
*167 FILLER_11_208
*168 FILLER_11_212
*169 FILLER_11_215
*170 FILLER_11_279
*171 FILLER_11_283
*172 FILLER_11_286
*173 FILLER_11_318
*174 FILLER_11_326
*175 FILLER_11_330
*176 FILLER_11_66
*177 FILLER_11_70
*178 FILLER_11_73
*179 FILLER_12_101
*180 FILLER_12_105
*181 FILLER_12_108
*182 FILLER_12_172
*183 FILLER_12_176
*184 FILLER_12_179
*185 FILLER_12_2
*186 FILLER_12_243
*187 FILLER_12_247
*188 FILLER_12_250
*189 FILLER_12_314
*190 FILLER_12_318
*191 FILLER_12_321
*192 FILLER_12_329
*193 FILLER_12_34
*194 FILLER_12_37
*195 FILLER_13_137
*196 FILLER_13_141
*197 FILLER_13_144
*198 FILLER_13_2
*199 FILLER_13_208
*200 FILLER_13_212
*201 FILLER_13_215
*202 FILLER_13_279
*203 FILLER_13_283
*204 FILLER_13_286
*205 FILLER_13_318
*206 FILLER_13_326
*207 FILLER_13_330
*208 FILLER_13_66
*209 FILLER_13_70
*210 FILLER_13_73
*211 FILLER_14_101
*212 FILLER_14_105
*213 FILLER_14_108
*214 FILLER_14_172
*215 FILLER_14_176
*216 FILLER_14_179
*217 FILLER_14_2
*218 FILLER_14_243
*219 FILLER_14_247
*220 FILLER_14_250
*221 FILLER_14_314
*222 FILLER_14_318
*223 FILLER_14_321
*224 FILLER_14_329
*225 FILLER_14_34
*226 FILLER_14_37
*227 FILLER_15_137
*228 FILLER_15_141
*229 FILLER_15_144
*230 FILLER_15_2
*231 FILLER_15_208
*232 FILLER_15_212
*233 FILLER_15_215
*234 FILLER_15_279
*235 FILLER_15_283
*236 FILLER_15_286
*237 FILLER_15_318
*238 FILLER_15_326
*239 FILLER_15_330
*240 FILLER_15_66
*241 FILLER_15_70
*242 FILLER_15_73
*243 FILLER_16_101
*244 FILLER_16_105
*245 FILLER_16_108
*246 FILLER_16_172
*247 FILLER_16_176
*248 FILLER_16_179
*249 FILLER_16_2
*250 FILLER_16_243
*251 FILLER_16_247
*252 FILLER_16_250
*253 FILLER_16_314
*254 FILLER_16_318
*255 FILLER_16_321
*256 FILLER_16_329
*257 FILLER_16_34
*258 FILLER_16_37
*259 FILLER_17_137
*260 FILLER_17_141
*261 FILLER_17_144
*262 FILLER_17_2
*263 FILLER_17_208
*264 FILLER_17_212
*265 FILLER_17_215
*266 FILLER_17_279
*267 FILLER_17_283
*268 FILLER_17_286
*269 FILLER_17_318
*270 FILLER_17_326
*271 FILLER_17_330
*272 FILLER_17_66
*273 FILLER_17_70
*274 FILLER_17_73
*275 FILLER_18_101
*276 FILLER_18_105
*277 FILLER_18_108
*278 FILLER_18_172
*279 FILLER_18_176
*280 FILLER_18_179
*281 FILLER_18_2
*282 FILLER_18_243
*283 FILLER_18_247
*284 FILLER_18_250
*285 FILLER_18_314
*286 FILLER_18_318
*287 FILLER_18_321
*288 FILLER_18_329
*289 FILLER_18_34
*290 FILLER_18_37
*291 FILLER_19_137
*292 FILLER_19_141
*293 FILLER_19_144
*294 FILLER_19_2
*295 FILLER_19_208
*296 FILLER_19_212
*297 FILLER_19_215
*298 FILLER_19_279
*299 FILLER_19_283
*300 FILLER_19_286
*301 FILLER_19_318
*302 FILLER_19_326
*303 FILLER_19_330
*304 FILLER_19_66
*305 FILLER_19_70
*306 FILLER_19_73
*307 FILLER_1_137
*308 FILLER_1_141
*309 FILLER_1_144
*310 FILLER_1_152
*311 FILLER_1_154
*312 FILLER_1_157
*313 FILLER_1_161
*314 FILLER_1_165
*315 FILLER_1_171
*316 FILLER_1_177
*317 FILLER_1_183
*318 FILLER_1_189
*319 FILLER_1_195
*320 FILLER_1_2
*321 FILLER_1_201
*322 FILLER_1_207
*323 FILLER_1_211
*324 FILLER_1_215
*325 FILLER_1_220
*326 FILLER_1_226
*327 FILLER_1_232
*328 FILLER_1_238
*329 FILLER_1_244
*330 FILLER_1_250
*331 FILLER_1_256
*332 FILLER_1_262
*333 FILLER_1_268
*334 FILLER_1_274
*335 FILLER_1_280
*336 FILLER_1_286
*337 FILLER_1_289
*338 FILLER_1_293
*339 FILLER_1_297
*340 FILLER_1_301
*341 FILLER_1_317
*342 FILLER_1_325
*343 FILLER_1_329
*344 FILLER_1_66
*345 FILLER_1_70
*346 FILLER_1_73
*347 FILLER_20_101
*348 FILLER_20_105
*349 FILLER_20_108
*350 FILLER_20_140
*351 FILLER_20_156
*352 FILLER_20_164
*353 FILLER_20_169
*354 FILLER_20_175
*355 FILLER_20_179
*356 FILLER_20_2
*357 FILLER_20_243
*358 FILLER_20_247
*359 FILLER_20_250
*360 FILLER_20_314
*361 FILLER_20_318
*362 FILLER_20_321
*363 FILLER_20_329
*364 FILLER_20_34
*365 FILLER_20_37
*366 FILLER_21_137
*367 FILLER_21_141
*368 FILLER_21_144
*369 FILLER_21_152
*370 FILLER_21_158
*371 FILLER_21_164
*372 FILLER_21_170
*373 FILLER_21_176
*374 FILLER_21_2
*375 FILLER_21_208
*376 FILLER_21_212
*377 FILLER_21_215
*378 FILLER_21_279
*379 FILLER_21_283
*380 FILLER_21_286
*381 FILLER_21_318
*382 FILLER_21_326
*383 FILLER_21_330
*384 FILLER_21_66
*385 FILLER_21_70
*386 FILLER_21_73
*387 FILLER_22_101
*388 FILLER_22_105
*389 FILLER_22_108
*390 FILLER_22_140
*391 FILLER_22_156
*392 FILLER_22_160
*393 FILLER_22_162
*394 FILLER_22_167
*395 FILLER_22_173
*396 FILLER_22_179
*397 FILLER_22_2
*398 FILLER_22_243
*399 FILLER_22_247
*400 FILLER_22_250
*401 FILLER_22_314
*402 FILLER_22_318
*403 FILLER_22_321
*404 FILLER_22_329
*405 FILLER_22_34
*406 FILLER_22_37
*407 FILLER_23_137
*408 FILLER_23_141
*409 FILLER_23_144
*410 FILLER_23_2
*411 FILLER_23_208
*412 FILLER_23_212
*413 FILLER_23_215
*414 FILLER_23_279
*415 FILLER_23_283
*416 FILLER_23_286
*417 FILLER_23_318
*418 FILLER_23_326
*419 FILLER_23_330
*420 FILLER_23_66
*421 FILLER_23_70
*422 FILLER_23_73
*423 FILLER_24_101
*424 FILLER_24_105
*425 FILLER_24_108
*426 FILLER_24_172
*427 FILLER_24_176
*428 FILLER_24_179
*429 FILLER_24_2
*430 FILLER_24_243
*431 FILLER_24_247
*432 FILLER_24_250
*433 FILLER_24_314
*434 FILLER_24_318
*435 FILLER_24_321
*436 FILLER_24_329
*437 FILLER_24_34
*438 FILLER_24_37
*439 FILLER_25_137
*440 FILLER_25_141
*441 FILLER_25_144
*442 FILLER_25_2
*443 FILLER_25_208
*444 FILLER_25_212
*445 FILLER_25_215
*446 FILLER_25_279
*447 FILLER_25_283
*448 FILLER_25_286
*449 FILLER_25_318
*450 FILLER_25_326
*451 FILLER_25_330
*452 FILLER_25_66
*453 FILLER_25_70
*454 FILLER_25_73
*455 FILLER_26_101
*456 FILLER_26_105
*457 FILLER_26_108
*458 FILLER_26_172
*459 FILLER_26_176
*460 FILLER_26_179
*461 FILLER_26_2
*462 FILLER_26_243
*463 FILLER_26_247
*464 FILLER_26_250
*465 FILLER_26_314
*466 FILLER_26_318
*467 FILLER_26_321
*468 FILLER_26_329
*469 FILLER_26_34
*470 FILLER_26_37
*471 FILLER_27_137
*472 FILLER_27_141
*473 FILLER_27_144
*474 FILLER_27_2
*475 FILLER_27_208
*476 FILLER_27_212
*477 FILLER_27_215
*478 FILLER_27_279
*479 FILLER_27_283
*480 FILLER_27_286
*481 FILLER_27_318
*482 FILLER_27_326
*483 FILLER_27_330
*484 FILLER_27_66
*485 FILLER_27_70
*486 FILLER_27_73
*487 FILLER_28_101
*488 FILLER_28_105
*489 FILLER_28_108
*490 FILLER_28_172
*491 FILLER_28_176
*492 FILLER_28_179
*493 FILLER_28_2
*494 FILLER_28_243
*495 FILLER_28_247
*496 FILLER_28_250
*497 FILLER_28_314
*498 FILLER_28_318
*499 FILLER_28_321
*500 FILLER_28_329
*501 FILLER_28_34
*502 FILLER_28_37
*503 FILLER_29_137
*504 FILLER_29_141
*505 FILLER_29_144
*506 FILLER_29_2
*507 FILLER_29_208
*508 FILLER_29_212
*509 FILLER_29_215
*510 FILLER_29_279
*511 FILLER_29_283
*512 FILLER_29_286
*513 FILLER_29_318
*514 FILLER_29_326
*515 FILLER_29_330
*516 FILLER_29_66
*517 FILLER_29_70
*518 FILLER_29_73
*519 FILLER_2_101
*520 FILLER_2_105
*521 FILLER_2_108
*522 FILLER_2_140
*523 FILLER_2_156
*524 FILLER_2_160
*525 FILLER_2_164
*526 FILLER_2_168
*527 FILLER_2_172
*528 FILLER_2_176
*529 FILLER_2_179
*530 FILLER_2_185
*531 FILLER_2_191
*532 FILLER_2_197
*533 FILLER_2_2
*534 FILLER_2_203
*535 FILLER_2_209
*536 FILLER_2_215
*537 FILLER_2_221
*538 FILLER_2_227
*539 FILLER_2_233
*540 FILLER_2_239
*541 FILLER_2_245
*542 FILLER_2_247
*543 FILLER_2_250
*544 FILLER_2_255
*545 FILLER_2_261
*546 FILLER_2_267
*547 FILLER_2_273
*548 FILLER_2_277
*549 FILLER_2_281
*550 FILLER_2_285
*551 FILLER_2_289
*552 FILLER_2_293
*553 FILLER_2_297
*554 FILLER_2_313
*555 FILLER_2_317
*556 FILLER_2_321
*557 FILLER_2_329
*558 FILLER_2_34
*559 FILLER_2_37
*560 FILLER_30_101
*561 FILLER_30_105
*562 FILLER_30_108
*563 FILLER_30_172
*564 FILLER_30_176
*565 FILLER_30_179
*566 FILLER_30_2
*567 FILLER_30_243
*568 FILLER_30_247
*569 FILLER_30_250
*570 FILLER_30_314
*571 FILLER_30_318
*572 FILLER_30_321
*573 FILLER_30_329
*574 FILLER_30_34
*575 FILLER_30_37
*576 FILLER_31_137
*577 FILLER_31_141
*578 FILLER_31_144
*579 FILLER_31_2
*580 FILLER_31_208
*581 FILLER_31_212
*582 FILLER_31_215
*583 FILLER_31_279
*584 FILLER_31_283
*585 FILLER_31_286
*586 FILLER_31_318
*587 FILLER_31_326
*588 FILLER_31_330
*589 FILLER_31_66
*590 FILLER_31_70
*591 FILLER_31_73
*592 FILLER_32_101
*593 FILLER_32_105
*594 FILLER_32_108
*595 FILLER_32_172
*596 FILLER_32_176
*597 FILLER_32_179
*598 FILLER_32_2
*599 FILLER_32_243
*600 FILLER_32_247
*601 FILLER_32_250
*602 FILLER_32_314
*603 FILLER_32_318
*604 FILLER_32_321
*605 FILLER_32_329
*606 FILLER_32_34
*607 FILLER_32_37
*608 FILLER_33_137
*609 FILLER_33_141
*610 FILLER_33_144
*611 FILLER_33_2
*612 FILLER_33_208
*613 FILLER_33_212
*614 FILLER_33_215
*615 FILLER_33_279
*616 FILLER_33_283
*617 FILLER_33_286
*618 FILLER_33_318
*619 FILLER_33_326
*620 FILLER_33_330
*621 FILLER_33_66
*622 FILLER_33_70
*623 FILLER_33_73
*624 FILLER_34_101
*625 FILLER_34_105
*626 FILLER_34_108
*627 FILLER_34_172
*628 FILLER_34_176
*629 FILLER_34_179
*630 FILLER_34_2
*631 FILLER_34_243
*632 FILLER_34_247
*633 FILLER_34_250
*634 FILLER_34_314
*635 FILLER_34_318
*636 FILLER_34_321
*637 FILLER_34_329
*638 FILLER_34_34
*639 FILLER_34_37
*640 FILLER_35_137
*641 FILLER_35_141
*642 FILLER_35_144
*643 FILLER_35_2
*644 FILLER_35_208
*645 FILLER_35_212
*646 FILLER_35_215
*647 FILLER_35_279
*648 FILLER_35_283
*649 FILLER_35_286
*650 FILLER_35_318
*651 FILLER_35_326
*652 FILLER_35_330
*653 FILLER_35_66
*654 FILLER_35_70
*655 FILLER_35_73
*656 FILLER_36_101
*657 FILLER_36_105
*658 FILLER_36_108
*659 FILLER_36_172
*660 FILLER_36_176
*661 FILLER_36_179
*662 FILLER_36_2
*663 FILLER_36_243
*664 FILLER_36_247
*665 FILLER_36_250
*666 FILLER_36_314
*667 FILLER_36_318
*668 FILLER_36_321
*669 FILLER_36_329
*670 FILLER_36_34
*671 FILLER_36_37
*672 FILLER_37_137
*673 FILLER_37_141
*674 FILLER_37_144
*675 FILLER_37_2
*676 FILLER_37_208
*677 FILLER_37_212
*678 FILLER_37_215
*679 FILLER_37_279
*680 FILLER_37_283
*681 FILLER_37_286
*682 FILLER_37_318
*683 FILLER_37_326
*684 FILLER_37_330
*685 FILLER_37_66
*686 FILLER_37_70
*687 FILLER_37_73
*688 FILLER_38_101
*689 FILLER_38_105
*690 FILLER_38_108
*691 FILLER_38_172
*692 FILLER_38_176
*693 FILLER_38_179
*694 FILLER_38_2
*695 FILLER_38_243
*696 FILLER_38_247
*697 FILLER_38_250
*698 FILLER_38_314
*699 FILLER_38_318
*700 FILLER_38_321
*701 FILLER_38_329
*702 FILLER_38_34
*703 FILLER_38_37
*704 FILLER_39_137
*705 FILLER_39_141
*706 FILLER_39_144
*707 FILLER_39_2
*708 FILLER_39_208
*709 FILLER_39_212
*710 FILLER_39_215
*711 FILLER_39_279
*712 FILLER_39_283
*713 FILLER_39_286
*714 FILLER_39_318
*715 FILLER_39_326
*716 FILLER_39_330
*717 FILLER_39_66
*718 FILLER_39_70
*719 FILLER_39_73
*720 FILLER_3_137
*721 FILLER_3_141
*722 FILLER_3_144
*723 FILLER_3_160
*724 FILLER_3_168
*725 FILLER_3_170
*726 FILLER_3_173
*727 FILLER_3_177
*728 FILLER_3_181
*729 FILLER_3_187
*730 FILLER_3_193
*731 FILLER_3_199
*732 FILLER_3_2
*733 FILLER_3_205
*734 FILLER_3_211
*735 FILLER_3_215
*736 FILLER_3_220
*737 FILLER_3_226
*738 FILLER_3_232
*739 FILLER_3_238
*740 FILLER_3_244
*741 FILLER_3_250
*742 FILLER_3_256
*743 FILLER_3_262
*744 FILLER_3_266
*745 FILLER_3_270
*746 FILLER_3_274
*747 FILLER_3_278
*748 FILLER_3_282
*749 FILLER_3_286
*750 FILLER_3_289
*751 FILLER_3_321
*752 FILLER_3_329
*753 FILLER_3_66
*754 FILLER_3_70
*755 FILLER_3_73
*756 FILLER_40_101
*757 FILLER_40_105
*758 FILLER_40_108
*759 FILLER_40_172
*760 FILLER_40_176
*761 FILLER_40_179
*762 FILLER_40_2
*763 FILLER_40_243
*764 FILLER_40_247
*765 FILLER_40_250
*766 FILLER_40_314
*767 FILLER_40_318
*768 FILLER_40_321
*769 FILLER_40_329
*770 FILLER_40_34
*771 FILLER_40_37
*772 FILLER_41_137
*773 FILLER_41_141
*774 FILLER_41_144
*775 FILLER_41_2
*776 FILLER_41_208
*777 FILLER_41_212
*778 FILLER_41_215
*779 FILLER_41_279
*780 FILLER_41_283
*781 FILLER_41_286
*782 FILLER_41_318
*783 FILLER_41_326
*784 FILLER_41_330
*785 FILLER_41_66
*786 FILLER_41_70
*787 FILLER_41_73
*788 FILLER_42_104
*789 FILLER_42_107
*790 FILLER_42_139
*791 FILLER_42_142
*792 FILLER_42_174
*793 FILLER_42_177
*794 FILLER_42_2
*795 FILLER_42_209
*796 FILLER_42_212
*797 FILLER_42_244
*798 FILLER_42_247
*799 FILLER_42_279
*800 FILLER_42_282
*801 FILLER_42_314
*802 FILLER_42_317
*803 FILLER_42_325
*804 FILLER_42_329
*805 FILLER_42_34
*806 FILLER_42_37
*807 FILLER_42_69
*808 FILLER_42_72
*809 FILLER_4_101
*810 FILLER_4_105
*811 FILLER_4_108
*812 FILLER_4_172
*813 FILLER_4_176
*814 FILLER_4_179
*815 FILLER_4_185
*816 FILLER_4_189
*817 FILLER_4_195
*818 FILLER_4_2
*819 FILLER_4_201
*820 FILLER_4_207
*821 FILLER_4_213
*822 FILLER_4_219
*823 FILLER_4_225
*824 FILLER_4_231
*825 FILLER_4_235
*826 FILLER_4_243
*827 FILLER_4_247
*828 FILLER_4_250
*829 FILLER_4_255
*830 FILLER_4_259
*831 FILLER_4_263
*832 FILLER_4_267
*833 FILLER_4_271
*834 FILLER_4_275
*835 FILLER_4_307
*836 FILLER_4_315
*837 FILLER_4_321
*838 FILLER_4_329
*839 FILLER_4_34
*840 FILLER_4_37
*841 FILLER_5_137
*842 FILLER_5_141
*843 FILLER_5_144
*844 FILLER_5_176
*845 FILLER_5_184
*846 FILLER_5_186
*847 FILLER_5_189
*848 FILLER_5_193
*849 FILLER_5_197
*850 FILLER_5_2
*851 FILLER_5_203
*852 FILLER_5_209
*853 FILLER_5_215
*854 FILLER_5_218
*855 FILLER_5_222
*856 FILLER_5_226
*857 FILLER_5_230
*858 FILLER_5_234
*859 FILLER_5_238
*860 FILLER_5_246
*861 FILLER_5_250
*862 FILLER_5_254
*863 FILLER_5_258
*864 FILLER_5_274
*865 FILLER_5_282
*866 FILLER_5_286
*867 FILLER_5_318
*868 FILLER_5_326
*869 FILLER_5_330
*870 FILLER_5_66
*871 FILLER_5_70
*872 FILLER_5_73
*873 FILLER_6_101
*874 FILLER_6_105
*875 FILLER_6_108
*876 FILLER_6_172
*877 FILLER_6_176
*878 FILLER_6_179
*879 FILLER_6_197
*880 FILLER_6_2
*881 FILLER_6_203
*882 FILLER_6_207
*883 FILLER_6_211
*884 FILLER_6_215
*885 FILLER_6_219
*886 FILLER_6_222
*887 FILLER_6_226
*888 FILLER_6_230
*889 FILLER_6_234
*890 FILLER_6_238
*891 FILLER_6_242
*892 FILLER_6_246
*893 FILLER_6_250
*894 FILLER_6_314
*895 FILLER_6_318
*896 FILLER_6_321
*897 FILLER_6_329
*898 FILLER_6_34
*899 FILLER_6_37
*900 FILLER_7_137
*901 FILLER_7_141
*902 FILLER_7_144
*903 FILLER_7_176
*904 FILLER_7_192
*905 FILLER_7_2
*906 FILLER_7_200
*907 FILLER_7_202
*908 FILLER_7_205
*909 FILLER_7_209
*910 FILLER_7_215
*911 FILLER_7_218
*912 FILLER_7_222
*913 FILLER_7_226
*914 FILLER_7_230
*915 FILLER_7_262
*916 FILLER_7_278
*917 FILLER_7_282
*918 FILLER_7_286
*919 FILLER_7_318
*920 FILLER_7_326
*921 FILLER_7_330
*922 FILLER_7_66
*923 FILLER_7_70
*924 FILLER_7_73
*925 FILLER_8_101
*926 FILLER_8_105
*927 FILLER_8_108
*928 FILLER_8_172
*929 FILLER_8_176
*930 FILLER_8_179
*931 FILLER_8_2
*932 FILLER_8_243
*933 FILLER_8_247
*934 FILLER_8_250
*935 FILLER_8_314
*936 FILLER_8_318
*937 FILLER_8_321
*938 FILLER_8_329
*939 FILLER_8_34
*940 FILLER_8_37
*941 FILLER_9_137
*942 FILLER_9_141
*943 FILLER_9_144
*944 FILLER_9_2
*945 FILLER_9_208
*946 FILLER_9_212
*947 FILLER_9_215
*948 FILLER_9_279
*949 FILLER_9_283
*950 FILLER_9_286
*951 FILLER_9_318
*952 FILLER_9_326
*953 FILLER_9_330
*954 FILLER_9_66
*955 FILLER_9_70
*956 FILLER_9_73
*957 PHY_0
*958 PHY_1
*959 PHY_10
*960 PHY_11
*961 PHY_12
*962 PHY_13
*963 PHY_14
*964 PHY_15
*965 PHY_16
*966 PHY_17
*967 PHY_18
*968 PHY_19
*969 PHY_2
*970 PHY_20
*971 PHY_21
*972 PHY_22
*973 PHY_23
*974 PHY_24
*975 PHY_25
*976 PHY_26
*977 PHY_27
*978 PHY_28
*979 PHY_29
*980 PHY_3
*981 PHY_30
*982 PHY_31
*983 PHY_32
*984 PHY_33
*985 PHY_34
*986 PHY_35
*987 PHY_36
*988 PHY_37
*989 PHY_38
*990 PHY_39
*991 PHY_4
*992 PHY_40
*993 PHY_41
*994 PHY_42
*995 PHY_43
*996 PHY_44
*997 PHY_45
*998 PHY_46
*999 PHY_47
*1000 PHY_48
*1001 PHY_49
*1002 PHY_5
*1003 PHY_50
*1004 PHY_51
*1005 PHY_52
*1006 PHY_53
*1007 PHY_54
*1008 PHY_55
*1009 PHY_56
*1010 PHY_57
*1011 PHY_58
*1012 PHY_59
*1013 PHY_6
*1014 PHY_60
*1015 PHY_61
*1016 PHY_62
*1017 PHY_63
*1018 PHY_64
*1019 PHY_65
*1020 PHY_66
*1021 PHY_67
*1022 PHY_68
*1023 PHY_69
*1024 PHY_7
*1025 PHY_70
*1026 PHY_71
*1027 PHY_72
*1028 PHY_73
*1029 PHY_74
*1030 PHY_75
*1031 PHY_76
*1032 PHY_77
*1033 PHY_78
*1034 PHY_79
*1035 PHY_8
*1036 PHY_80
*1037 PHY_81
*1038 PHY_82
*1039 PHY_83
*1040 PHY_84
*1041 PHY_85
*1042 PHY_9
*1043 TAP_100
*1044 TAP_101
*1045 TAP_102
*1046 TAP_103
*1047 TAP_104
*1048 TAP_105
*1049 TAP_106
*1050 TAP_107
*1051 TAP_108
*1052 TAP_109
*1053 TAP_110
*1054 TAP_111
*1055 TAP_112
*1056 TAP_113
*1057 TAP_114
*1058 TAP_115
*1059 TAP_116
*1060 TAP_117
*1061 TAP_118
*1062 TAP_119
*1063 TAP_120
*1064 TAP_121
*1065 TAP_122
*1066 TAP_123
*1067 TAP_124
*1068 TAP_125
*1069 TAP_126
*1070 TAP_127
*1071 TAP_128
*1072 TAP_129
*1073 TAP_130
*1074 TAP_131
*1075 TAP_132
*1076 TAP_133
*1077 TAP_134
*1078 TAP_135
*1079 TAP_136
*1080 TAP_137
*1081 TAP_138
*1082 TAP_139
*1083 TAP_140
*1084 TAP_141
*1085 TAP_142
*1086 TAP_143
*1087 TAP_144
*1088 TAP_145
*1089 TAP_146
*1090 TAP_147
*1091 TAP_148
*1092 TAP_149
*1093 TAP_150
*1094 TAP_151
*1095 TAP_152
*1096 TAP_153
*1097 TAP_154
*1098 TAP_155
*1099 TAP_156
*1100 TAP_157
*1101 TAP_158
*1102 TAP_159
*1103 TAP_160
*1104 TAP_161
*1105 TAP_162
*1106 TAP_163
*1107 TAP_164
*1108 TAP_165
*1109 TAP_166
*1110 TAP_167
*1111 TAP_168
*1112 TAP_169
*1113 TAP_170
*1114 TAP_171
*1115 TAP_172
*1116 TAP_173
*1117 TAP_174
*1118 TAP_175
*1119 TAP_176
*1120 TAP_177
*1121 TAP_178
*1122 TAP_179
*1123 TAP_180
*1124 TAP_181
*1125 TAP_182
*1126 TAP_183
*1127 TAP_184
*1128 TAP_185
*1129 TAP_186
*1130 TAP_187
*1131 TAP_188
*1132 TAP_189
*1133 TAP_190
*1134 TAP_191
*1135 TAP_192
*1136 TAP_193
*1137 TAP_194
*1138 TAP_195
*1139 TAP_196
*1140 TAP_197
*1141 TAP_198
*1142 TAP_199
*1143 TAP_200
*1144 TAP_201
*1145 TAP_202
*1146 TAP_203
*1147 TAP_204
*1148 TAP_205
*1149 TAP_206
*1150 TAP_207
*1151 TAP_208
*1152 TAP_209
*1153 TAP_210
*1154 TAP_211
*1155 TAP_212
*1156 TAP_213
*1157 TAP_214
*1158 TAP_215
*1159 TAP_216
*1160 TAP_217
*1161 TAP_218
*1162 TAP_219
*1163 TAP_220
*1164 TAP_221
*1165 TAP_222
*1166 TAP_223
*1167 TAP_224
*1168 TAP_225
*1169 TAP_226
*1170 TAP_227
*1171 TAP_228
*1172 TAP_229
*1173 TAP_230
*1174 TAP_231
*1175 TAP_232
*1176 TAP_233
*1177 TAP_234
*1178 TAP_235
*1179 TAP_236
*1180 TAP_237
*1181 TAP_238
*1182 TAP_239
*1183 TAP_240
*1184 TAP_241
*1185 TAP_242
*1186 TAP_243
*1187 TAP_244
*1188 TAP_245
*1189 TAP_246
*1190 TAP_247
*1191 TAP_248
*1192 TAP_249
*1193 TAP_250
*1194 TAP_251
*1195 TAP_252
*1196 TAP_253
*1197 TAP_254
*1198 TAP_255
*1199 TAP_256
*1200 TAP_257
*1201 TAP_258
*1202 TAP_259
*1203 TAP_260
*1204 TAP_261
*1205 TAP_262
*1206 TAP_263
*1207 TAP_264
*1208 TAP_265
*1209 TAP_266
*1210 TAP_267
*1211 TAP_268
*1212 TAP_269
*1213 TAP_270
*1214 TAP_271
*1215 TAP_272
*1216 TAP_273
*1217 TAP_274
*1218 TAP_275
*1219 TAP_276
*1220 TAP_277
*1221 TAP_278
*1222 TAP_279
*1223 TAP_280
*1224 TAP_281
*1225 TAP_282
*1226 TAP_283
*1227 TAP_284
*1228 TAP_285
*1229 TAP_286
*1230 TAP_287
*1231 TAP_86
*1232 TAP_87
*1233 TAP_88
*1234 TAP_89
*1235 TAP_90
*1236 TAP_91
*1237 TAP_92
*1238 TAP_93
*1239 TAP_94
*1240 TAP_95
*1241 TAP_96
*1242 TAP_97
*1243 TAP_98
*1244 TAP_99
*1245 _0_
*1246 _1_
*1247 _2_
*1248 _3_
*1249 _4_
*1250 _5_
*1251 _6_
*1252 _7_
*1253 _8_
*1254 u_trans0p\.gen_FB\[0\]\.fbn
*1255 u_trans0p\.gen_FB\[0\]\.fbp
*1256 u_trans0p\.gen_FB\[1\]\.fbn
*1257 u_trans0p\.gen_FB\[1\]\.fbp
*1258 u_trans0p\.gen_FB\[2\]\.fbn
*1259 u_trans0p\.gen_FB\[2\]\.fbp
*1260 u_trans0p\.gen_FB\[3\]\.fbn
*1261 u_trans0p\.gen_FB\[3\]\.fbp
*1262 u_trans0p\.gen_T\[0\]\.thrun
*1263 u_trans0p\.gen_T\[0\]\.thrup
*1264 u_trans0p\.gen_T\[1\]\.thrun
*1265 u_trans0p\.gen_T\[1\]\.thrup
*1266 u_trans0p\.gen_T\[2\]\.thrun
*1267 u_trans0p\.gen_T\[2\]\.thrup
*1268 u_trans0p\.gen_T\[3\]\.thrun
*1269 u_trans0p\.gen_T\[3\]\.thrup
*1270 u_trans0p\.gen_T\[4\]\.thrun
*1271 u_trans0p\.gen_T\[4\]\.thrup
*1272 u_trans0p\.gen_T\[5\]\.thrun
*1273 u_trans0p\.gen_T\[5\]\.thrup
*1274 u_trans0p\.gen_T\[6\]\.thrun
*1275 u_trans0p\.gen_T\[6\]\.thrup
*1276 u_trans0p\.gen_T\[7\]\.thrun
*1277 u_trans0p\.gen_T\[7\]\.thrup
*1278 u_trans0p\.gen_T\[8\]\.thrun
*1279 u_trans0p\.gen_T\[8\]\.thrup
*1280 u_trans0p\.gen_T\[9\]\.thrun
*1281 u_trans0p\.gen_T\[9\]\.thrup
*1282 u_trans0p\.gen_X\[0\]\.crossn
*1283 u_trans0p\.gen_X\[0\]\.crossp
*1284 u_trans0p\.gen_X\[1\]\.crossn
*1285 u_trans0p\.gen_X\[1\]\.crossp
*1286 u_trans0p\.gen_X\[2\]\.crossn
*1287 u_trans0p\.gen_X\[2\]\.crossp
*1288 u_trans0p\.gen_X\[3\]\.crossn
*1289 u_trans0p\.gen_X\[3\]\.crossp
*1290 u_trans0p\.gen_X\[4\]\.crossn
*1291 u_trans0p\.gen_X\[4\]\.crossp
*1292 u_trans1p\.gen_FB\[0\]\.fbn
*1293 u_trans1p\.gen_FB\[0\]\.fbp
*1294 u_trans1p\.gen_FB\[1\]\.fbn
*1295 u_trans1p\.gen_FB\[1\]\.fbp
*1296 u_trans1p\.gen_FB\[2\]\.fbn
*1297 u_trans1p\.gen_FB\[2\]\.fbp
*1298 u_trans1p\.gen_FB\[3\]\.fbn
*1299 u_trans1p\.gen_FB\[3\]\.fbp
*1300 u_trans1p\.gen_T\[0\]\.thrun
*1301 u_trans1p\.gen_T\[0\]\.thrup
*1302 u_trans1p\.gen_T\[1\]\.thrun
*1303 u_trans1p\.gen_T\[1\]\.thrup
*1304 u_trans1p\.gen_T\[2\]\.thrun
*1305 u_trans1p\.gen_T\[2\]\.thrup
*1306 u_trans1p\.gen_T\[3\]\.thrun
*1307 u_trans1p\.gen_T\[3\]\.thrup
*1308 u_trans1p\.gen_T\[4\]\.thrun
*1309 u_trans1p\.gen_T\[4\]\.thrup
*1310 u_trans1p\.gen_T\[5\]\.thrun
*1311 u_trans1p\.gen_T\[5\]\.thrup
*1312 u_trans1p\.gen_T\[6\]\.thrun
*1313 u_trans1p\.gen_T\[6\]\.thrup
*1314 u_trans1p\.gen_T\[7\]\.thrun
*1315 u_trans1p\.gen_T\[7\]\.thrup
*1316 u_trans1p\.gen_T\[8\]\.thrun
*1317 u_trans1p\.gen_T\[8\]\.thrup
*1318 u_trans1p\.gen_T\[9\]\.thrun
*1319 u_trans1p\.gen_T\[9\]\.thrup
*1320 u_trans1p\.gen_X\[0\]\.crossn
*1321 u_trans1p\.gen_X\[0\]\.crossp
*1322 u_trans1p\.gen_X\[1\]\.crossn
*1323 u_trans1p\.gen_X\[1\]\.crossp
*1324 u_trans1p\.gen_X\[2\]\.crossn
*1325 u_trans1p\.gen_X\[2\]\.crossp
*1326 u_trans1p\.gen_X\[3\]\.crossn
*1327 u_trans1p\.gen_X\[3\]\.crossp
*1328 u_trans1p\.gen_X\[4\]\.crossn
*1329 u_trans1p\.gen_X\[4\]\.crossp

*PORTS
clk I
clko O
latch I
on O
op O
rst I
sdi I
sig I

*D_NET *1 0.00900936
*CONN
*P clk I
*I *1245:I I *D gf180mcu_fd_sc_mcu7t5v0__inv_1
*I *21:I I *D gf180mcu_fd_sc_mcu7t5v0__antenna
*CAP
1 clk 0.00222782
2 *1245:I 3.87484e-05
3 *21:I 0
4 *1:8 0.00226657
5 *1245:I *7:8 0.000559528
6 *1:8 *7:8 0.0039167
*RES
1 clk *1:8 30.375 
2 *1:8 *21:I 9 
3 *1:8 *1245:I 9.81 
*END

*D_NET *2 0.0109735
*CONN
*P clko O
*I *1245:ZN O *D gf180mcu_fd_sc_mcu7t5v0__inv_1
*CAP
1 clko 0.00140894
2 *1245:ZN 0.00140894
3 clko *28:I 0
4 clko *1269:I 4.19646e-05
5 clko *1279:I 0.000269402
6 clko *1279:ZN 8.95063e-06
7 clko *1288:ZN 3.73018e-05
8 clko *1289:ZN 0.0002362
9 clko *7:8 0.000435188
10 clko *7:15 0.000186509
11 clko *7:22 0.000186509
12 clko *7:29 0.000393741
13 clko *7:62 0.000103616
14 clko *7:69 0.000124339
15 clko *7:92 4.04104e-05
16 clko *8:125 9.09232e-05
17 clko *8:140 0.000139882
18 clko *8:146 0.000269402
19 clko *19:34 0.000808207
20 clko *19:36 0.000808207
21 clko *19:38 0.000808207
22 clko *19:40 0.000808207
23 clko *19:42 0.000808207
24 clko *19:44 0.000435189
25 clko *19:49 0.000559528
26 clko *20:24 0.000248679
27 clko *20:175 0.000306879
*RES
1 *1245:ZN clko 35.955 
*END

*D_NET *4 0.0226247
*CONN
*P on O
*I *66:I I *D gf180mcu_fd_sc_mcu7t5v0__antenna
*I *95:I I *D gf180mcu_fd_sc_mcu7t5v0__antenna
*I *1298:ZN O *D gf180mcu_fd_sc_mcu7t5v0__inv_1
*I *1322:ZN O *D gf180mcu_fd_sc_mcu7t5v0__inv_1
*I *1298:I I *D gf180mcu_fd_sc_mcu7t5v0__inv_1
*I *60:I I *D gf180mcu_fd_sc_mcu7t5v0__antenna
*I *1292:I I *D gf180mcu_fd_sc_mcu7t5v0__inv_1
*I *1292:ZN O *D gf180mcu_fd_sc_mcu7t5v0__inv_1
*I *1302:ZN O *D gf180mcu_fd_sc_mcu7t5v0__inv_1
*I *1316:ZN O *D gf180mcu_fd_sc_mcu7t5v0__inv_1
*I *1327:I I *D gf180mcu_fd_sc_mcu7t5v0__inv_1
*I *1314:ZN O *D gf180mcu_fd_sc_mcu7t5v0__inv_1
*I *1306:ZN O *D gf180mcu_fd_sc_mcu7t5v0__inv_1
*I *1312:ZN O *D gf180mcu_fd_sc_mcu7t5v0__inv_1
*I *1318:ZN O *D gf180mcu_fd_sc_mcu7t5v0__inv_1
*I *1323:I I *D gf180mcu_fd_sc_mcu7t5v0__inv_1
*I *1324:ZN O *D gf180mcu_fd_sc_mcu7t5v0__inv_1
*I *1329:I I *D gf180mcu_fd_sc_mcu7t5v0__inv_1
*I *1325:I I *D gf180mcu_fd_sc_mcu7t5v0__inv_1
*I *93:I I *D gf180mcu_fd_sc_mcu7t5v0__antenna
*I *64:I I *D gf180mcu_fd_sc_mcu7t5v0__antenna
*I *89:I I *D gf180mcu_fd_sc_mcu7t5v0__antenna
*I *62:I I *D gf180mcu_fd_sc_mcu7t5v0__antenna
*I *97:I I *D gf180mcu_fd_sc_mcu7t5v0__antenna
*I *1294:ZN O *D gf180mcu_fd_sc_mcu7t5v0__inv_1
*I *1294:I I *D gf180mcu_fd_sc_mcu7t5v0__inv_1
*I *1296:ZN O *D gf180mcu_fd_sc_mcu7t5v0__inv_1
*I *1296:I I *D gf180mcu_fd_sc_mcu7t5v0__inv_1
*I *1326:ZN O *D gf180mcu_fd_sc_mcu7t5v0__inv_1
*I *91:I I *D gf180mcu_fd_sc_mcu7t5v0__antenna
*I *1320:ZN O *D gf180mcu_fd_sc_mcu7t5v0__inv_1
*I *1321:I I *D gf180mcu_fd_sc_mcu7t5v0__inv_1
*I *1310:ZN O *D gf180mcu_fd_sc_mcu7t5v0__inv_1
*I *1300:ZN O *D gf180mcu_fd_sc_mcu7t5v0__inv_1
*I *1308:ZN O *D gf180mcu_fd_sc_mcu7t5v0__inv_1
*I *1304:ZN O *D gf180mcu_fd_sc_mcu7t5v0__inv_1
*I *1328:ZN O *D gf180mcu_fd_sc_mcu7t5v0__inv_1
*CAP
1 on 0.000689763
2 *66:I 4.06369e-05
3 *95:I 0
4 *1298:ZN 0
5 *1322:ZN 9.57125e-05
6 *1298:I 0
7 *60:I 8.19965e-05
8 *1292:I 0
9 *1292:ZN 0
10 *1302:ZN 8.72887e-05
11 *1316:ZN 0
12 *1327:I 3.92448e-05
13 *1314:ZN 0
14 *1306:ZN 7.19821e-05
15 *1312:ZN 2.42155e-05
16 *1318:ZN 7.08238e-05
17 *1323:I 0
18 *1324:ZN 0
19 *1329:I 0
20 *1325:I 0
21 *93:I 0
22 *64:I 0.000162062
23 *89:I 0
24 *62:I 0
25 *97:I 0
26 *1294:ZN 0
27 *1294:I 3.0087e-05
28 *1296:ZN 0
29 *1296:I 2.67812e-05
30 *1326:ZN 0.000101244
31 *91:I 8.96061e-05
32 *1320:ZN 0
33 *1321:I 4.25689e-05
34 *1310:ZN 0
35 *1300:ZN 0
36 *1308:ZN 6.06444e-05
37 *1304:ZN 8.86544e-05
38 *1328:ZN 0
39 *4:270 0.000112199
40 *4:265 1.64862e-05
41 *4:253 0.000150241
42 *4:245 0.000168594
43 *4:216 7.19821e-05