*SPEF "ieee 1481-1999"
*DESIGN "filterstage"
*DATE "11:11:11 Fri 11 11, 1111"
*VENDOR "OpenRCX"
*PROGRAM "Parallel Extraction"
*VERSION "1.0"
*DESIGN_FLOW "NAME_SCOPE LOCAL" "PIN_CAP NONE"
*DIVIDER /
*DELIMITER :
*BUS_DELIMITER []
*T_UNIT 1 NS
*C_UNIT 1 PF
*R_UNIT 1 OHM
*L_UNIT 1 HENRY

*NAME_MAP
*1 nbusin_nshunt
*2 nbusout
*3 nseries_gy
*4 nseries_gygy
*5 nshunt_gy
*6 pbusin_pshunt
*7 pbusout
*8 pseries_gy
*9 pseries_gygy
*10 pshunt_gy
*11 FILLER_0_10
*12 FILLER_0_103
*13 FILLER_0_107
*14 FILLER_0_115
*15 FILLER_0_121
*16 FILLER_0_127
*17 FILLER_0_133
*18 FILLER_0_139
*19 FILLER_0_142
*20 FILLER_0_147
*21 FILLER_0_153
*22 FILLER_0_159
*23 FILLER_0_16
*24 FILLER_0_165
*25 FILLER_0_171
*26 FILLER_0_177
*27 FILLER_0_185
*28 FILLER_0_187
*29 FILLER_0_2
*30 FILLER_0_22
*31 FILLER_0_28
*32 FILLER_0_34
*33 FILLER_0_37
*34 FILLER_0_42
*35 FILLER_0_48
*36 FILLER_0_54
*37 FILLER_0_60
*38 FILLER_0_66
*39 FILLER_0_72
*40 FILLER_0_77
*41 FILLER_0_83
*42 FILLER_0_89
*43 FILLER_0_95
*44 FILLER_10_105
*45 FILLER_10_108
*46 FILLER_10_113
*47 FILLER_10_117
*48 FILLER_10_123
*49 FILLER_10_129
*50 FILLER_10_135
*51 FILLER_10_141
*52 FILLER_10_147
*53 FILLER_10_153
*54 FILLER_10_159
*55 FILLER_10_165
*56 FILLER_10_171
*57 FILLER_10_175
*58 FILLER_10_179
*59 FILLER_10_187
*60 FILLER_10_2
*61 FILLER_10_34
*62 FILLER_10_37
*63 FILLER_10_45
*64 FILLER_10_47
*65 FILLER_10_52
*66 FILLER_10_58
*67 FILLER_10_64
*68 FILLER_10_68
*69 FILLER_10_73
*70 FILLER_10_79
*71 FILLER_10_85
*72 FILLER_10_93
*73 FILLER_10_99
*74 FILLER_11_105
*75 FILLER_11_117
*76 FILLER_11_123
*77 FILLER_11_129
*78 FILLER_11_135
*79 FILLER_11_141
*80 FILLER_11_144
*81 FILLER_11_149
*82 FILLER_11_155
*83 FILLER_11_161
*84 FILLER_11_167
*85 FILLER_11_173
*86 FILLER_11_181
*87 FILLER_11_185
*88 FILLER_11_187
*89 FILLER_11_2
*90 FILLER_11_66
*91 FILLER_11_70
*92 FILLER_11_73
*93 FILLER_12_101
*94 FILLER_12_105
*95 FILLER_12_108
*96 FILLER_12_116
*97 FILLER_12_118
*98 FILLER_12_123
*99 FILLER_12_129
*100 FILLER_12_135
*101 FILLER_12_141
*102 FILLER_12_147
*103 FILLER_12_153
*104 FILLER_12_159
*105 FILLER_12_165
*106 FILLER_12_173
*107 FILLER_12_179
*108 FILLER_12_187
*109 FILLER_12_2
*110 FILLER_12_34
*111 FILLER_12_37
*112 FILLER_13_105
*113 FILLER_13_121
*114 FILLER_13_129
*115 FILLER_13_135
*116 FILLER_13_141
*117 FILLER_13_144
*118 FILLER_13_149
*119 FILLER_13_155
*120 FILLER_13_187
*121 FILLER_13_2
*122 FILLER_13_66
*123 FILLER_13_70
*124 FILLER_13_73
*125 FILLER_14_101
*126 FILLER_14_105
*127 FILLER_14_108
*128 FILLER_14_124
*129 FILLER_14_132
*130 FILLER_14_136
*131 FILLER_14_141
*132 FILLER_14_147
*133 FILLER_14_163
*134 FILLER_14_171
*135 FILLER_14_175
*136 FILLER_14_179
*137 FILLER_14_187
*138 FILLER_14_2
*139 FILLER_14_34
*140 FILLER_14_37
*141 FILLER_15_137
*142 FILLER_15_141
*143 FILLER_15_144
*144 FILLER_15_176
*145 FILLER_15_184
*146 FILLER_15_2
*147 FILLER_15_66
*148 FILLER_15_70
*149 FILLER_15_73
*150 FILLER_16_104
*151 FILLER_16_107
*152 FILLER_16_139
*153 FILLER_16_142
*154 FILLER_16_174
*155 FILLER_16_177
*156 FILLER_16_185
*157 FILLER_16_187
*158 FILLER_16_2
*159 FILLER_16_34
*160 FILLER_16_37
*161 FILLER_16_69
*162 FILLER_16_72
*163 FILLER_1_101
*164 FILLER_1_107
*165 FILLER_1_113
*166 FILLER_1_119
*167 FILLER_1_12
*168 FILLER_1_125
*169 FILLER_1_131
*170 FILLER_1_137
*171 FILLER_1_141
*172 FILLER_1_144
*173 FILLER_1_149
*174 FILLER_1_155
*175 FILLER_1_161
*176 FILLER_1_167
*177 FILLER_1_173
*178 FILLER_1_179
*179 FILLER_1_18
*180 FILLER_1_185
*181 FILLER_1_187
*182 FILLER_1_2
*183 FILLER_1_24
*184 FILLER_1_30
*185 FILLER_1_36
*186 FILLER_1_42
*187 FILLER_1_48
*188 FILLER_1_54
*189 FILLER_1_6
*190 FILLER_1_60
*191 FILLER_1_66
*192 FILLER_1_70
*193 FILLER_1_73
*194 FILLER_1_78
*195 FILLER_1_84
*196 FILLER_1_90
*197 FILLER_1_94
*198 FILLER_1_96
*199 FILLER_2_10
*200 FILLER_2_105
*201 FILLER_2_108
*202 FILLER_2_116
*203 FILLER_2_122
*204 FILLER_2_128
*205 FILLER_2_134
*206 FILLER_2_140
*207 FILLER_2_146
*208 FILLER_2_152
*209 FILLER_2_158
*210 FILLER_2_16
*211 FILLER_2_164
*212 FILLER_2_170
*213 FILLER_2_176
*214 FILLER_2_179
*215 FILLER_2_184
*216 FILLER_2_2
*217 FILLER_2_22
*218 FILLER_2_28
*219 FILLER_2_34
*220 FILLER_2_37
*221 FILLER_2_42
*222 FILLER_2_48
*223 FILLER_2_54
*224 FILLER_2_60
*225 FILLER_2_66
*226 FILLER_2_72
*227 FILLER_2_78
*228 FILLER_2_84
*229 FILLER_2_88
*230 FILLER_2_93
*231 FILLER_2_99
*232 FILLER_3_103
*233 FILLER_3_109
*234 FILLER_3_115
*235 FILLER_3_121
*236 FILLER_3_127
*237 FILLER_3_133
*238 FILLER_3_139
*239 FILLER_3_141
*240 FILLER_3_144
*241 FILLER_3_149
*242 FILLER_3_15
*243 FILLER_3_155
*244 FILLER_3_161
*245 FILLER_3_167
*246 FILLER_3_173
*247 FILLER_3_179
*248 FILLER_3_185
*249 FILLER_3_187
*250 FILLER_3_2
*251 FILLER_3_21
*252 FILLER_3_27
*253 FILLER_3_33
*254 FILLER_3_39
*255 FILLER_3_4
*256 FILLER_3_45
*257 FILLER_3_51
*258 FILLER_3_57
*259 FILLER_3_63
*260 FILLER_3_69
*261 FILLER_3_73
*262 FILLER_3_78
*263 FILLER_3_84
*264 FILLER_3_9
*265 FILLER_3_90
*266 FILLER_3_96
*267 FILLER_3_98
*268 FILLER_4_10
*269 FILLER_4_102
*270 FILLER_4_108
*271 FILLER_4_112
*272 FILLER_4_117
*273 FILLER_4_123
*274 FILLER_4_129
*275 FILLER_4_135
*276 FILLER_4_141
*277 FILLER_4_147
*278 FILLER_4_153
*279 FILLER_4_159
*280 FILLER_4_16
*281 FILLER_4_165
*282 FILLER_4_171
*283 FILLER_4_175
*284 FILLER_4_179
*285 FILLER_4_184
*286 FILLER_4_2
*287 FILLER_4_22
*288 FILLER_4_28
*289 FILLER_4_34
*290 FILLER_4_37
*291 FILLER_4_42
*292 FILLER_4_48
*293 FILLER_4_54
*294 FILLER_4_60
*295 FILLER_4_66
*296 FILLER_4_72
*297 FILLER_4_78
*298 FILLER_4_84
*299 FILLER_4_90
*300 FILLER_4_96
*301 FILLER_5_103
*302 FILLER_5_109
*303 FILLER_5_115
*304 FILLER_5_121
*305 FILLER_5_127
*306 FILLER_5_133
*307 FILLER_5_139
*308 FILLER_5_141
*309 FILLER_5_144
*310 FILLER_5_149
*311 FILLER_5_15
*312 FILLER_5_155
*313 FILLER_5_161
*314 FILLER_5_167
*315 FILLER_5_173
*316 FILLER_5_179
*317 FILLER_5_187
*318 FILLER_5_2
*319 FILLER_5_21
*320 FILLER_5_27
*321 FILLER_5_33
*322 FILLER_5_39
*323 FILLER_5_4
*324 FILLER_5_45
*325 FILLER_5_51
*326 FILLER_5_57
*327 FILLER_5_59
*328 FILLER_5_64
*329 FILLER_5_70
*330 FILLER_5_73
*331 FILLER_5_79
*332 FILLER_5_85
*333 FILLER_5_9
*334 FILLER_5_91
*335 FILLER_5_97
*336 FILLER_6_10
*337 FILLER_6_105
*338 FILLER_6_108
*339 FILLER_6_113
*340 FILLER_6_119
*341 FILLER_6_125
*342 FILLER_6_131
*343 FILLER_6_137
*344 FILLER_6_143
*345 FILLER_6_149
*346 FILLER_6_155
*347 FILLER_6_16
*348 FILLER_6_161
*349 FILLER_6_167
*350 FILLER_6_173
*351 FILLER_6_179
*352 FILLER_6_187
*353 FILLER_6_2
*354 FILLER_6_22
*355 FILLER_6_28
*356 FILLER_6_34
*357 FILLER_6_37
*358 FILLER_6_43
*359 FILLER_6_49
*360 FILLER_6_55
*361 FILLER_6_61
*362 FILLER_6_67
*363 FILLER_6_73
*364 FILLER_6_79
*365 FILLER_6_85
*366 FILLER_6_91
*367 FILLER_6_99
*368 FILLER_7_10
*369 FILLER_7_101
*370 FILLER_7_107
*371 FILLER_7_113
*372 FILLER_7_119
*373 FILLER_7_125
*374 FILLER_7_131
*375 FILLER_7_137
*376 FILLER_7_14
*377 FILLER_7_141
*378 FILLER_7_144
*379 FILLER_7_149
*380 FILLER_7_155
*381 FILLER_7_16
*382 FILLER_7_161
*383 FILLER_7_167
*384 FILLER_7_173
*385 FILLER_7_181
*386 FILLER_7_185
*387 FILLER_7_187
*388 FILLER_7_2
*389 FILLER_7_21
*390 FILLER_7_27
*391 FILLER_7_33
*392 FILLER_7_39
*393 FILLER_7_45
*394 FILLER_7_51
*395 FILLER_7_57
*396 FILLER_7_59
*397 FILLER_7_64
*398 FILLER_7_70
*399 FILLER_7_73
*400 FILLER_7_77
*401 FILLER_7_83
*402 FILLER_7_89
*403 FILLER_7_95
*404 FILLER_8_105
*405 FILLER_8_108
*406 FILLER_8_113
*407 FILLER_8_119
*408 FILLER_8_125
*409 FILLER_8_131
*410 FILLER_8_137
*411 FILLER_8_143
*412 FILLER_8_149
*413 FILLER_8_155
*414 FILLER_8_161
*415 FILLER_8_167
*416 FILLER_8_173
*417 FILLER_8_179
*418 FILLER_8_18
*419 FILLER_8_184
*420 FILLER_8_2
*421 FILLER_8_22
*422 FILLER_8_28
*423 FILLER_8_34
*424 FILLER_8_37
*425 FILLER_8_43
*426 FILLER_8_49
*427 FILLER_8_55
*428 FILLER_8_61
*429 FILLER_8_67
*430 FILLER_8_73
*431 FILLER_8_79
*432 FILLER_8_85
*433 FILLER_8_93
*434 FILLER_8_99
*435 FILLER_9_104
*436 FILLER_9_110
*437 FILLER_9_116
*438 FILLER_9_122
*439 FILLER_9_128
*440 FILLER_9_134
*441 FILLER_9_140
*442 FILLER_9_144
*443 FILLER_9_149
*444 FILLER_9_155
*445 FILLER_9_161
*446 FILLER_9_167
*447 FILLER_9_173
*448 FILLER_9_179
*449 FILLER_9_185
*450 FILLER_9_187
*451 FILLER_9_2
*452 FILLER_9_34
*453 FILLER_9_39
*454 FILLER_9_45
*455 FILLER_9_51
*456 FILLER_9_57
*457 FILLER_9_63
*458 FILLER_9_65
*459 FILLER_9_70
*460 FILLER_9_73
*461 FILLER_9_79
*462 FILLER_9_85
*463 FILLER_9_91
*464 FILLER_9_93
*465 FILLER_9_98
*466 PHY_0
*467 PHY_1
*468 PHY_10
*469 PHY_11
*470 PHY_12
*471 PHY_13
*472 PHY_14
*473 PHY_15
*474 PHY_16
*475 PHY_17
*476 PHY_18
*477 PHY_19
*478 PHY_2
*479 PHY_20
*480 PHY_21
*481 PHY_22
*482 PHY_23
*483 PHY_24
*484 PHY_25
*485 PHY_26
*486 PHY_27
*487 PHY_28
*488 PHY_29
*489 PHY_3
*490 PHY_30
*491 PHY_31
*492 PHY_32
*493 PHY_33
*494 PHY_4
*495 PHY_5
*496 PHY_6
*497 PHY_7
*498 PHY_8
*499 PHY_9
*500 TAP_34
*501 TAP_35
*502 TAP_36
*503 TAP_37
*504 TAP_38
*505 TAP_39
*506 TAP_40
*507 TAP_41
*508 TAP_42
*509 TAP_43
*510 TAP_44
*511 TAP_45
*512 TAP_46
*513 TAP_47
*514 TAP_48
*515 TAP_49
*516 TAP_50
*517 TAP_51
*518 TAP_52
*519 TAP_53
*520 TAP_54
*521 TAP_55
*522 TAP_56
*523 TAP_57
*524 TAP_58
*525 TAP_59
*526 TAP_60
*527 TAP_61
*528 TAP_62
*529 TAP_63
*530 TAP_64
*531 TAP_65
*532 TAP_66
*533 TAP_67
*534 TAP_68
*535 TAP_69
*536 TAP_70
*537 TAP_71
*538 TAP_72
*539 TAP_73
*540 TAP_74
*541 TAP_75
*542 TAP_76
*543 TAP_77
*544 TAP_78
*545 TAP_79
*546 TAP_80
*547 u_nauta_series_f1\.gen_FB\[0\]\.fbn
*548 u_nauta_series_f1\.gen_FB\[0\]\.fbp
*549 u_nauta_series_f1\.gen_FB\[1\]\.fbn
*550 u_nauta_series_f1\.gen_FB\[1\]\.fbp
*551 u_nauta_series_f1\.gen_FB\[2\]\.fbn
*552 u_nauta_series_f1\.gen_FB\[2\]\.fbp
*553 u_nauta_series_f1\.gen_FB\[3\]\.fbn
*554 u_nauta_series_f1\.gen_FB\[3\]\.fbp
*555 u_nauta_series_f1\.gen_T\[0\]\.thrun
*556 u_nauta_series_f1\.gen_T\[0\]\.thrup
*557 u_nauta_series_f1\.gen_T\[1\]\.thrun
*558 u_nauta_series_f1\.gen_T\[1\]\.thrup
*559 u_nauta_series_f1\.gen_T\[2\]\.thrun
*560 u_nauta_series_f1\.gen_T\[2\]\.thrup
*561 u_nauta_series_f1\.gen_T\[3\]\.thrun
*562 u_nauta_series_f1\.gen_T\[3\]\.thrup
*563 u_nauta_series_f1\.gen_T\[4\]\.thrun
*564 u_nauta_series_f1\.gen_T\[4\]\.thrup
*565 u_nauta_series_f1\.gen_T\[5\]\.thrun
*566 u_nauta_series_f1\.gen_T\[5\]\.thrup
*567 u_nauta_series_f1\.gen_T\[6\]\.thrun
*568 u_nauta_series_f1\.gen_T\[6\]\.thrup
*569 u_nauta_series_f1\.gen_T\[7\]\.thrun
*570 u_nauta_series_f1\.gen_T\[7\]\.thrup
*571 u_nauta_series_f1\.gen_T\[8\]\.thrun
*572 u_nauta_series_f1\.gen_T\[8\]\.thrup
*573 u_nauta_series_f1\.gen_T\[9\]\.thrun
*574 u_nauta_series_f1\.gen_T\[9\]\.thrup
*575 u_nauta_series_f1\.gen_X\[0\]\.crossn
*576 u_nauta_series_f1\.gen_X\[0\]\.crossp
*577 u_nauta_series_f1\.gen_X\[1\]\.crossn
*578 u_nauta_series_f1\.gen_X\[1\]\.crossp
*579 u_nauta_series_f1\.gen_X\[2\]\.crossn
*580 u_nauta_series_f1\.gen_X\[2\]\.crossp
*581 u_nauta_series_f1\.gen_X\[3\]\.crossn
*582 u_nauta_series_f1\.gen_X\[3\]\.crossp
*583 u_nauta_series_f1\.gen_X\[4\]\.crossn
*584 u_nauta_series_f1\.gen_X\[4\]\.crossp
*585 u_nauta_series_f2\.gen_FB\[0\]\.fbn
*586 u_nauta_series_f2\.gen_FB\[0\]\.fbp
*587 u_nauta_series_f2\.gen_FB\[1\]\.fbn
*588 u_nauta_series_f2\.gen_FB\[1\]\.fbp
*589 u_nauta_series_f2\.gen_FB\[2\]\.fbn
*590 u_nauta_series_f2\.gen_FB\[2\]\.fbp
*591 u_nauta_series_f2\.gen_FB\[3\]\.fbn
*592 u_nauta_series_f2\.gen_FB\[3\]\.fbp
*593 u_nauta_series_f2\.gen_T\[0\]\.thrun
*594 u_nauta_series_f2\.gen_T\[0\]\.thrup
*595 u_nauta_series_f2\.gen_T\[1\]\.thrun
*596 u_nauta_series_f2\.gen_T\[1\]\.thrup
*597 u_nauta_series_f2\.gen_T\[2\]\.thrun
*598 u_nauta_series_f2\.gen_T\[2\]\.thrup
*599 u_nauta_series_f2\.gen_T\[3\]\.thrun
*600 u_nauta_series_f2\.gen_T\[3\]\.thrup
*601 u_nauta_series_f2\.gen_T\[4\]\.thrun
*602 u_nauta_series_f2\.gen_T\[4\]\.thrup
*603 u_nauta_series_f2\.gen_T\[5\]\.thrun
*604 u_nauta_series_f2\.gen_T\[5\]\.thrup
*605 u_nauta_series_f2\.gen_T\[6\]\.thrun
*606 u_nauta_series_f2\.gen_T\[6\]\.thrup
*607 u_nauta_series_f2\.gen_T\[7\]\.thrun
*608 u_nauta_series_f2\.gen_T\[7\]\.thrup
*609 u_nauta_series_f2\.gen_T\[8\]\.thrun
*610 u_nauta_series_f2\.gen_T\[8\]\.thrup
*611 u_nauta_series_f2\.gen_T\[9\]\.thrun
*612 u_nauta_series_f2\.gen_T\[9\]\.thrup
*613 u_nauta_series_f2\.gen_X\[0\]\.crossn
*614 u_nauta_series_f2\.gen_X\[0\]\.crossp
*615 u_nauta_series_f2\.gen_X\[1\]\.crossn
*616 u_nauta_series_f2\.gen_X\[1\]\.crossp
*617 u_nauta_series_f2\.gen_X\[2\]\.crossn
*618 u_nauta_series_f2\.gen_X\[2\]\.crossp
*619 u_nauta_series_f2\.gen_X\[3\]\.crossn
*620 u_nauta_series_f2\.gen_X\[3\]\.crossp
*621 u_nauta_series_f2\.gen_X\[4\]\.crossn
*622 u_nauta_series_f2\.gen_X\[4\]\.crossp
*623 u_nauta_series_r1\.gen_FB\[0\]\.fbn
*624 u_nauta_series_r1\.gen_FB\[0\]\.fbp
*625 u_nauta_series_r1\.gen_FB\[1\]\.fbn
*626 u_nauta_series_r1\.gen_FB\[1\]\.fbp
*627 u_nauta_series_r1\.gen_FB\[2\]\.fbn
*628 u_nauta_series_r1\.gen_FB\[2\]\.fbp
*629 u_nauta_series_r1\.gen_FB\[3\]\.fbn
*630 u_nauta_series_r1\.gen_FB\[3\]\.fbp
*631 u_nauta_series_r1\.gen_T\[0\]\.thrun
*632 u_nauta_series_r1\.gen_T\[0\]\.thrup
*633 u_nauta_series_r1\.gen_T\[1\]\.thrun
*634 u_nauta_series_r1\.gen_T\[1\]\.thrup
*635 u_nauta_series_r1\.gen_T\[2\]\.thrun
*636 u_nauta_series_r1\.gen_T\[2\]\.thrup
*637 u_nauta_series_r1\.gen_T\[3\]\.thrun
*638 u_nauta_series_r1\.gen_T\[3\]\.thrup
*639 u_nauta_series_r1\.gen_T\[4\]\.thrun
*640 u_nauta_series_r1\.gen_T\[4\]\.thrup
*641 u_nauta_series_r1\.gen_T\[5\]\.thrun
*642 u_nauta_series_r1\.gen_T\[5\]\.thrup
*643 u_nauta_series_r1\.gen_T\[6\]\.thrun
*644 u_nauta_series_r1\.gen_T\[6\]\.thrup
*645 u_nauta_series_r1\.gen_T\[7\]\.thrun
*646 u_nauta_series_r1\.gen_T\[7\]\.thrup
*647 u_nauta_series_r1\.gen_T\[8\]\.thrun
*648 u_nauta_series_r1\.gen_T\[8\]\.thrup
*649 u_nauta_series_r1\.gen_T\[9\]\.thrun
*650 u_nauta_series_r1\.gen_T\[9\]\.thrup
*651 u_nauta_series_r1\.gen_X\[0\]\.crossn
*652 u_nauta_series_r1\.gen_X\[0\]\.crossp
*653 u_nauta_series_r1\.gen_X\[1\]\.crossn
*654 u_nauta_series_r1\.gen_X\[1\]\.crossp
*655 u_nauta_series_r1\.gen_X\[2\]\.crossn
*656 u_nauta_series_r1\.gen_X\[2\]\.crossp
*657 u_nauta_series_r1\.gen_X\[3\]\.crossn
*658 u_nauta_series_r1\.gen_X\[3\]\.crossp
*659 u_nauta_series_r1\.gen_X\[4\]\.crossn
*660 u_nauta_series_r1\.gen_X\[4\]\.crossp
*661 u_nauta_series_r2\.gen_FB\[0\]\.fbn
*662 u_nauta_series_r2\.gen_FB\[0\]\.fbp
*663 u_nauta_series_r2\.gen_FB\[1\]\.fbn
*664 u_nauta_series_r2\.gen_FB\[1\]\.fbp
*665 u_nauta_series_r2\.gen_FB\[2\]\.fbn
*666 u_nauta_series_r2\.gen_FB\[2\]\.fbp
*667 u_nauta_series_r2\.gen_FB\[3\]\.fbn
*668 u_nauta_series_r2\.gen_FB\[3\]\.fbp
*669 u_nauta_series_r2\.gen_T\[0\]\.thrun
*670 u_nauta_series_r2\.gen_T\[0\]\.thrup
*671 u_nauta_series_r2\.gen_T\[1\]\.thrun
*672 u_nauta_series_r2\.gen_T\[1\]\.thrup
*673 u_nauta_series_r2\.gen_T\[2\]\.thrun
*674 u_nauta_series_r2\.gen_T\[2\]\.thrup
*675 u_nauta_series_r2\.gen_T\[3\]\.thrun
*676 u_nauta_series_r2\.gen_T\[3\]\.thrup
*677 u_nauta_series_r2\.gen_T\[4\]\.thrun
*678 u_nauta_series_r2\.gen_T\[4\]\.thrup
*679 u_nauta_series_r2\.gen_T\[5\]\.thrun
*680 u_nauta_series_r2\.gen_T\[5\]\.thrup
*681 u_nauta_series_r2\.gen_T\[6\]\.thrun
*682 u_nauta_series_r2\.gen_T\[6\]\.thrup
*683 u_nauta_series_r2\.gen_T\[7\]\.thrun
*684 u_nauta_series_r2\.gen_T\[7\]\.thrup
*685 u_nauta_series_r2\.gen_T\[8\]\.thrun
*686 u_nauta_series_r2\.gen_T\[8\]\.thrup
*687 u_nauta_series_r2\.gen_T\[9\]\.thrun
*688 u_nauta_series_r2\.gen_T\[9\]\.thrup
*689 u_nauta_series_r2\.gen_X\[0\]\.crossn
*690 u_nauta_series_r2\.gen_X\[0\]\.crossp
*691 u_nauta_series_r2\.gen_X\[1\]\.crossn
*692 u_nauta_series_r2\.gen_X\[1\]\.crossp
*693 u_nauta_series_r2\.gen_X\[2\]\.crossn
*694 u_nauta_series_r2\.gen_X\[2\]\.crossp
*695 u_nauta_series_r2\.gen_X\[3\]\.crossn
*696 u_nauta_series_r2\.gen_X\[3\]\.crossp
*697 u_nauta_series_r2\.gen_X\[4\]\.crossn
*698 u_nauta_series_r2\.gen_X\[4\]\.crossp
*699 u_seriesgy\.u_nauta_f\.gen_FB\[0\]\.fbn
*700 u_seriesgy\.u_nauta_f\.gen_FB\[0\]\.fbp
*701 u_seriesgy\.u_nauta_f\.gen_FB\[1\]\.fbn
*702 u_seriesgy\.u_nauta_f\.gen_FB\[1\]\.fbp
*703 u_seriesgy\.u_nauta_f\.gen_FB\[2\]\.fbn
*704 u_seriesgy\.u_nauta_f\.gen_FB\[2\]\.fbp
*705 u_seriesgy\.u_nauta_f\.gen_FB\[3\]\.fbn
*706 u_seriesgy\.u_nauta_f\.gen_FB\[3\]\.fbp
*707 u_seriesgy\.u_nauta_f\.gen_T\[0\]\.thrun
*708 u_seriesgy\.u_nauta_f\.gen_T\[0\]\.thrup
*709 u_seriesgy\.u_nauta_f\.gen_T\[1\]\.thrun
*710 u_seriesgy\.u_nauta_f\.gen_T\[1\]\.thrup
*711 u_seriesgy\.u_nauta_f\.gen_T\[2\]\.thrun
*712 u_seriesgy\.u_nauta_f\.gen_T\[2\]\.thrup
*713 u_seriesgy\.u_nauta_f\.gen_T\[3\]\.thrun
*714 u_seriesgy\.u_nauta_f\.gen_T\[3\]\.thrup
*715 u_seriesgy\.u_nauta_f\.gen_T\[4\]\.thrun
*716 u_seriesgy\.u_nauta_f\.gen_T\[4\]\.thrup
*717 u_seriesgy\.u_nauta_f\.gen_T\[5\]\.thrun
*718 u_seriesgy\.u_nauta_f\.gen_T\[5\]\.thrup
*719 u_seriesgy\.u_nauta_f\.gen_T\[6\]\.thrun
*720 u_seriesgy\.u_nauta_f\.gen_T\[6\]\.thrup
*721 u_seriesgy\.u_nauta_f\.gen_T\[7\]\.thrun
*722 u_seriesgy\.u_nauta_f\.gen_T\[7\]\.thrup
*723 u_seriesgy\.u_nauta_f\.gen_T\[8\]\.thrun
*724 u_seriesgy\.u_nauta_f\.gen_T\[8\]\.thrup
*725 u_seriesgy\.u_nauta_f\.gen_T\[9\]\.thrun
*726 u_seriesgy\.u_nauta_f\.gen_T\[9\]\.thrup
*727 u_seriesgy\.u_nauta_f\.gen_X\[0\]\.crossn
*728 u_seriesgy\.u_nauta_f\.gen_X\[0\]\.crossp
*729 u_seriesgy\.u_nauta_f\.gen_X\[1\]\.crossn
*730 u_seriesgy\.u_nauta_f\.gen_X\[1\]\.crossp
*731 u_seriesgy\.u_nauta_f\.gen_X\[2\]\.crossn
*732 u_seriesgy\.u_nauta_f\.gen_X\[2\]\.crossp
*733 u_seriesgy\.u_nauta_f\.gen_X\[3\]\.crossn
*734 u_seriesgy\.u_nauta_f\.gen_X\[3\]\.crossp
*735 u_seriesgy\.u_nauta_f\.gen_X\[4\]\.crossn
*736 u_seriesgy\.u_nauta_f\.gen_X\[4\]\.crossp
*737 u_seriesgy\.u_nauta_r\.gen_FB\[0\]\.fbn
*738 u_seriesgy\.u_nauta_r\.gen_FB\[0\]\.fbp
*739 u_seriesgy\.u_nauta_r\.gen_FB\[1\]\.fbn
*740 u_seriesgy\.u_nauta_r\.gen_FB\[1\]\.fbp
*741 u_seriesgy\.u_nauta_r\.gen_FB\[2\]\.fbn
*742 u_seriesgy\.u_nauta_r\.gen_FB\[2\]\.fbp
*743 u_seriesgy\.u_nauta_r\.gen_FB\[3\]\.fbn
*744 u_seriesgy\.u_nauta_r\.gen_FB\[3\]\.fbp
*745 u_seriesgy\.u_nauta_r\.gen_T\[0\]\.thrun
*746 u_seriesgy\.u_nauta_r\.gen_T\[0\]\.thrup
*747 u_seriesgy\.u_nauta_r\.gen_T\[1\]\.thrun
*748 u_seriesgy\.u_nauta_r\.gen_T\[1\]\.thrup
*749 u_seriesgy\.u_nauta_r\.gen_T\[2\]\.thrun
*750 u_seriesgy\.u_nauta_r\.gen_T\[2\]\.thrup
*751 u_seriesgy\.u_nauta_r\.gen_T\[3\]\.thrun
*752 u_seriesgy\.u_nauta_r\.gen_T\[3\]\.thrup
*753 u_seriesgy\.u_nauta_r\.gen_T\[4\]\.thrun
*754 u_seriesgy\.u_nauta_r\.gen_T\[4\]\.thrup
*755 u_seriesgy\.u_nauta_r\.gen_T\[5\]\.thrun
*756 u_seriesgy\.u_nauta_r\.gen_T\[5\]\.thrup
*757 u_seriesgy\.u_nauta_r\.gen_T\[6\]\.thrun
*758 u_seriesgy\.u_nauta_r\.gen_T\[6\]\.thrup
*759 u_seriesgy\.u_nauta_r\.gen_T\[7\]\.thrun
*760 u_seriesgy\.u_nauta_r\.gen_T\[7\]\.thrup
*761 u_seriesgy\.u_nauta_r\.gen_T\[8\]\.thrun
*762 u_seriesgy\.u_nauta_r\.gen_T\[8\]\.thrup
*763 u_seriesgy\.u_nauta_r\.gen_T\[9\]\.thrun
*764 u_seriesgy\.u_nauta_r\.gen_T\[9\]\.thrup
*765 u_seriesgy\.u_nauta_r\.gen_X\[0\]\.crossn
*766 u_seriesgy\.u_nauta_r\.gen_X\[0\]\.crossp
*767 u_seriesgy\.u_nauta_r\.gen_X\[1\]\.crossn
*768 u_seriesgy\.u_nauta_r\.gen_X\[1\]\.crossp
*769 u_seriesgy\.u_nauta_r\.gen_X\[2\]\.crossn
*770 u_seriesgy\.u_nauta_r\.gen_X\[2\]\.crossp
*771 u_seriesgy\.u_nauta_r\.gen_X\[3\]\.crossn
*772 u_seriesgy\.u_nauta_r\.gen_X\[3\]\.crossp
*773 u_seriesgy\.u_nauta_r\.gen_X\[4\]\.crossn
*774 u_seriesgy\.u_nauta_r\.gen_X\[4\]\.crossp
*775 u_shuntgy\.u_nauta_f\.gen_FB\[0\]\.fbn
*776 u_shuntgy\.u_nauta_f\.gen_FB\[0\]\.fbp
*777 u_shuntgy\.u_nauta_f\.gen_FB\[1\]\.fbn
*778 u_shuntgy\.u_nauta_f\.gen_FB\[1\]\.fbp
*779 u_shuntgy\.u_nauta_f\.gen_FB\[2\]\.fbn
*780 u_shuntgy\.u_nauta_f\.gen_FB\[2\]\.fbp
*781 u_shuntgy\.u_nauta_f\.gen_FB\[3\]\.fbn
*782 u_shuntgy\.u_nauta_f\.gen_FB\[3\]\.fbp
*783 u_shuntgy\.u_nauta_f\.gen_T\[0\]\.thrun
*784 u_shuntgy\.u_nauta_f\.gen_T\[0\]\.thrup
*785 u_shuntgy\.u_nauta_f\.gen_T\[1\]\.thrun
*786 u_shuntgy\.u_nauta_f\.gen_T\[1\]\.thrup
*787 u_shuntgy\.u_nauta_f\.gen_T\[2\]\.thrun
*788 u_shuntgy\.u_nauta_f\.gen_T\[2\]\.thrup
*789 u_shuntgy\.u_nauta_f\.gen_T\[3\]\.thrun
*790 u_shuntgy\.u_nauta_f\.gen_T\[3\]\.thrup
*791 u_shuntgy\.u_nauta_f\.gen_T\[4\]\.thrun
*792 u_shuntgy\.u_nauta_f\.gen_T\[4\]\.thrup
*793 u_shuntgy\.u_nauta_f\.gen_T\[5\]\.thrun
*794 u_shuntgy\.u_nauta_f\.gen_T\[5\]\.thrup
*795 u_shuntgy\.u_nauta_f\.gen_T\[6\]\.thrun
*796 u_shuntgy\.u_nauta_f\.gen_T\[6\]\.thrup
*797 u_shuntgy\.u_nauta_f\.gen_T\[7\]\.thrun
*798 u_shuntgy\.u_nauta_f\.gen_T\[7\]\.thrup
*799 u_shuntgy\.u_nauta_f\.gen_T\[8\]\.thrun
*800 u_shuntgy\.u_nauta_f\.gen_T\[8\]\.thrup
*801 u_shuntgy\.u_nauta_f\.gen_T\[9\]\.thrun
*802 u_shuntgy\.u_nauta_f\.gen_T\[9\]\.thrup
*803 u_shuntgy\.u_nauta_f\.gen_X\[0\]\.crossn
*804 u_shuntgy\.u_nauta_f\.gen_X\[0\]\.crossp
*805 u_shuntgy\.u_nauta_f\.gen_X\[1\]\.crossn
*806 u_shuntgy\.u_nauta_f\.gen_X\[1\]\.crossp
*807 u_shuntgy\.u_nauta_f\.gen_X\[2\]\.crossn
*808 u_shuntgy\.u_nauta_f\.gen_X\[2\]\.crossp
*809 u_shuntgy\.u_nauta_f\.gen_X\[3\]\.crossn
*810 u_shuntgy\.u_nauta_f\.gen_X\[3\]\.crossp
*811 u_shuntgy\.u_nauta_f\.gen_X\[4\]\.crossn
*812 u_shuntgy\.u_nauta_f\.gen_X\[4\]\.crossp
*813 u_shuntgy\.u_nauta_r\.gen_FB\[0\]\.fbn
*814 u_shuntgy\.u_nauta_r\.gen_FB\[0\]\.fbp
*815 u_shuntgy\.u_nauta_r\.gen_FB\[1\]\.fbn
*816 u_shuntgy\.u_nauta_r\.gen_FB\[1\]\.fbp
*817 u_shuntgy\.u_nauta_r\.gen_FB\[2\]\.fbn
*818 u_shuntgy\.u_nauta_r\.gen_FB\[2\]\.fbp
*819 u_shuntgy\.u_nauta_r\.gen_FB\[3\]\.fbn
*820 u_shuntgy\.u_nauta_r\.gen_FB\[3\]\.fbp
*821 u_shuntgy\.u_nauta_r\.gen_T\[0\]\.thrun
*822 u_shuntgy\.u_nauta_r\.gen_T\[0\]\.thrup
*823 u_shuntgy\.u_nauta_r\.gen_T\[1\]\.thrun
*824 u_shuntgy\.u_nauta_r\.gen_T\[1\]\.thrup
*825 u_shuntgy\.u_nauta_r\.gen_T\[2\]\.thrun
*826 u_shuntgy\.u_nauta_r\.gen_T\[2\]\.thrup
*827 u_shuntgy\.u_nauta_r\.gen_T\[3\]\.thrun
*828 u_shuntgy\.u_nauta_r\.gen_T\[3\]\.thrup
*829 u_shuntgy\.u_nauta_r\.gen_T\[4\]\.thrun
*830 u_shuntgy\.u_nauta_r\.gen_T\[4\]\.thrup
*831 u_shuntgy\.u_nauta_r\.gen_T\[5\]\.thrun
*832 u_shuntgy\.u_nauta_r\.gen_T\[5\]\.thrup
*833 u_shuntgy\.u_nauta_r\.gen_T\[6\]\.thrun
*834 u_shuntgy\.u_nauta_r\.gen_T\[6\]\.thrup
*835 u_shuntgy\.u_nauta_r\.gen_T\[7\]\.thrun
*836 u_shuntgy\.u_nauta_r\.gen_T\[7\]\.thrup
*837 u_shuntgy\.u_nauta_r\.gen_T\[8\]\.thrun
*838 u_shuntgy\.u_nauta_r\.gen_T\[8\]\.thrup
*839 u_shuntgy\.u_nauta_r\.gen_T\[9\]\.thrun
*840 u_shuntgy\.u_nauta_r\.gen_T\[9\]\.thrup
*841 u_shuntgy\.u_nauta_r\.gen_X\[0\]\.crossn
*842 u_shuntgy\.u_nauta_r\.gen_X\[0\]\.crossp
*843 u_shuntgy\.u_nauta_r\.gen_X\[1\]\.crossn
*844 u_shuntgy\.u_nauta_r\.gen_X\[1\]\.crossp
*845 u_shuntgy\.u_nauta_r\.gen_X\[2\]\.crossn
*846 u_shuntgy\.u_nauta_r\.gen_X\[2\]\.crossp
*847 u_shuntgy\.u_nauta_r\.gen_X\[3\]\.crossn
*848 u_shuntgy\.u_nauta_r\.gen_X\[3\]\.crossp
*849 u_shuntgy\.u_nauta_r\.gen_X\[4\]\.crossn
*850 u_shuntgy\.u_nauta_r\.gen_X\[4\]\.crossp

*PORTS
nbusin_nshunt I
nbusout I
nseries_gy I
nseries_gygy I
nshunt_gy I
pbusin_pshunt I
pbusout I
pseries_gy I
pseries_gygy I
pshunt_gy I

*D_NET *1 0.0483561
*CONN
*P nbusin_nshunt I
*I *630:ZN O *D gf180mcu_fd_sc_mcu7t5v0__inv_1
*I *654:ZN O *D gf180mcu_fd_sc_mcu7t5v0__inv_1
*I *630:I I *D gf180mcu_fd_sc_mcu7t5v0__inv_1
*I *815:ZN O *D gf180mcu_fd_sc_mcu7t5v0__inv_1
*I *815:I I *D gf180mcu_fd_sc_mcu7t5v0__inv_1
*I *660:ZN O *D gf180mcu_fd_sc_mcu7t5v0__inv_1
*I *628:ZN O *D gf180mcu_fd_sc_mcu7t5v0__inv_1
*I *628:I I *D gf180mcu_fd_sc_mcu7t5v0__inv_1
*I *652:ZN O *D gf180mcu_fd_sc_mcu7t5v0__inv_1
*I *827:ZN O *D gf180mcu_fd_sc_mcu7t5v0__inv_1
*I *844:I I *D gf180mcu_fd_sc_mcu7t5v0__inv_1
*I *839:ZN O *D gf180mcu_fd_sc_mcu7t5v0__inv_1
*I *823:ZN O *D gf180mcu_fd_sc_mcu7t5v0__inv_1
*I *794:I I *D gf180mcu_fd_sc_mcu7t5v0__inv_1
*I *790:I I *D gf180mcu_fd_sc_mcu7t5v0__inv_1
*I *831:ZN O *D gf180mcu_fd_sc_mcu7t5v0__inv_1
*I *825:ZN O *D gf180mcu_fd_sc_mcu7t5v0__inv_1
*I *653:I I *D gf180mcu_fd_sc_mcu7t5v0__inv_1
*I *850:I I *D gf180mcu_fd_sc_mcu7t5v0__inv_1
*I *659:I I *D gf180mcu_fd_sc_mcu7t5v0__inv_1
*I *646:ZN O *D gf180mcu_fd_sc_mcu7t5v0__inv_1
*I *594:I I *D gf180mcu_fd_sc_mcu7t5v0__inv_1
*I *598:I I *D gf180mcu_fd_sc_mcu7t5v0__inv_1
*I *644:ZN O *D gf180mcu_fd_sc_mcu7t5v0__inv_1
*I *632:ZN O *D gf180mcu_fd_sc_mcu7t5v0__inv_1
*I *634:ZN O *D gf180mcu_fd_sc_mcu7t5v0__inv_1
*I *642:ZN O *D gf180mcu_fd_sc_mcu7t5v0__inv_1
*I *640:ZN O *D gf180mcu_fd_sc_mcu7t5v0__inv_1
*I *638:ZN O *D gf180mcu_fd_sc_mcu7t5v0__inv_1
*I *650:ZN O *D gf180mcu_fd_sc_mcu7t5v0__inv_1
*I *636:ZN O *D gf180mcu_fd_sc_mcu7t5v0__inv_1
*I *604:I I *D gf180mcu_fd_sc_mcu7t5v0__inv_1
*I *606:I I *D gf180mcu_fd_sc_mcu7t5v0__inv_1
*I *596:I I *D gf180mcu_fd_sc_mcu7t5v0__inv_1
*I *608:I I *D gf180mcu_fd_sc_mcu7t5v0__inv_1
*I *648:ZN O *D gf180mcu_fd_sc_mcu7t5v0__inv_1
*I *600:I I *D gf180mcu_fd_sc_mcu7t5v0__inv_1
*I *610:I I *D gf180mcu_fd_sc_mcu7t5v0__inv_1
*I *602:I I *D gf180mcu_fd_sc_mcu7t5v0__inv_1
*I *843:ZN O *D gf180mcu_fd_sc_mcu7t5v0__inv_1
*I *612:I I *D gf180mcu_fd_sc_mcu7t5v0__inv_1
*I *819:ZN O *D gf180mcu_fd_sc_mcu7t5v0__inv_1
*I *819:I I *D gf180mcu_fd_sc_mcu7t5v0__inv_1
*I *626:ZN O *D gf180mcu_fd_sc_mcu7t5v0__inv_1
*I *626:I I *D gf180mcu_fd_sc_mcu7t5v0__inv_1
*I *813:ZN O *D gf180mcu_fd_sc_mcu7t5v0__inv_1
*I *835:ZN O *D gf180mcu_fd_sc_mcu7t5v0__inv_1
*I *656:ZN O *D gf180mcu_fd_sc_mcu7t5v0__inv_1
*I *845:ZN O *D gf180mcu_fd_sc_mcu7t5v0__inv_1
*I *841:ZN O *D gf180mcu_fd_sc_mcu7t5v0__inv_1
*I *847:ZN O *D gf180mcu_fd_sc_mcu7t5v0__inv_1
*I *837:ZN O *D gf180mcu_fd_sc_mcu7t5v0__inv_1
*I *829:ZN O *D gf180mcu_fd_sc_mcu7t5v0__inv_1
*I *658:ZN O *D gf180mcu_fd_sc_mcu7t5v0__inv_1
*I *813:I I *D gf180mcu_fd_sc_mcu7t5v0__inv_1
*I *817:ZN O *D gf180mcu_fd_sc_mcu7t5v0__inv_1
*I *817:I I *D gf180mcu_fd_sc_mcu7t5v0__inv_1
*I *624:ZN O *D gf180mcu_fd_sc_mcu7t5v0__inv_1
*I *657:I I *D gf180mcu_fd_sc_mcu7t5v0__inv_1
*I *624:I I *D gf180mcu_fd_sc_mcu7t5v0__inv_1
*I *848:I I *D gf180mcu_fd_sc_mcu7t5v0__inv_1
*I *651:I I *D gf180mcu_fd_sc_mcu7t5v0__inv_1
*I *655:I I *D gf180mcu_fd_sc_mcu7t5v0__inv_1
*I *821:ZN O *D gf180mcu_fd_sc_mcu7t5v0__inv_1
*I *846:I I *D gf180mcu_fd_sc_mcu7t5v0__inv_1
*I *833:ZN O *D gf180mcu_fd_sc_mcu7t5v0__inv_1
*I *796:I I *D gf180mcu_fd_sc_mcu7t5v0__inv_1
*I *842:I I *D gf180mcu_fd_sc_mcu7t5v0__inv_1
*I *786:I I *D gf180mcu_fd_sc_mcu7t5v0__inv_1
*I *802:I I *D gf180mcu_fd_sc_mcu7t5v0__inv_1
*I *798:I I *D gf180mcu_fd_sc_mcu7t5v0__inv_1
*I *792:I I *D gf180mcu_fd_sc_mcu7t5v0__inv_1
*I *784:I I *D gf180mcu_fd_sc_mcu7t5v0__inv_1
*I *800:I I *D gf180mcu_fd_sc_mcu7t5v0__inv_1
*I *788:I I *D gf180mcu_fd_sc_mcu7t5v0__inv_1
*I *849:ZN O *D gf180mcu_fd_sc_mcu7t5v0__inv_1
*CAP
1 nbusin_nshunt 0.00172369
2 *630:ZN 0
3 *654:ZN 7.84826e-05
4 *630:I 0
5 *815:ZN 0
6 *815:I 7.08837e-06
7 *660:ZN 0
8 *628:ZN 1.35705e-05
9 *628:I 0
10 *652:ZN 0
11 *827:ZN 8.29379e-05
12 *844:I 0
13 *839:ZN 0
14 *823:ZN 0
15 *794:I 0.000150284
16 *790:I 0.000112238
17 *831:ZN 0
18 *825:ZN 4.92788e-05
19 *653:I 0
20 *850:I 6.97734e-05
21 *659:I 7.35693e-05
22 *646:ZN 0
23 *594:I 0.000112053
24 *598:I 0.000129951
25 *644:ZN 0
26 *632:ZN 0
27 *634:ZN 1.50908e-05
28 *642:ZN 0
29 *640:ZN 1.74157e-05
30 *638:ZN 6.46019e-05
31 *650:ZN 0
32 *636:ZN 0
33 *604:I 0.000118582
34 *606:I 4.77455e-05
35 *596:I 0
36 *608:I 0
37 *648:ZN 9.34409e-05
38 *600:I 7.52006e-05
39 *610:I 0
40 *602:I 0
41 *843:ZN 0
42 *612:I 2.42518e-05
43 *819:ZN 0
44 *819:I 0
45 *626:ZN 1.33906e-05
46 *626:I 0
47 *813:ZN 0
48 *835:ZN 0.000335712
49 *656:ZN 6.84559e-05
50 *845:ZN 4.77081e-05
51 *841:ZN 5.30303e-05
52 *847:ZN 0
53 *837:ZN 0
54 *829:ZN 5.36097e-05
55 *658:ZN 8.62409e-05
56 *813:I 4.59583e-05
57 *817:ZN 0
58 *817:I 0
59 *624:ZN 1.93603e-05
60 *657:I 0.000102604
61 *624:I 0
62 *848:I 0
63 *651:I 2.88702e-05
64 *655:I 0
65 *821:ZN 0.000109029
66 *846:I 0
67 *833:ZN 7.37161e-05
68 *796:I 3.0087e-05
69 *842:I 0
70 *786:I 0
71 *802:I 2.53858e-05
72 *798:I 0
73 *792:I 0.000114301
74 *784:I 0
75 *800:I 0.000216633
76 *788:I 0
77 *849:ZN 0
78 *1:623 0.000106915
79 *1:617 7.12869e-05
80 *1:609 6.89766e-05
81 *1:602 0.000157784
82 *1:584 4.85641e-05
83 *1:566 0.000194396
84 *1:558 0.000232243
85 *1:526 0.000336878
86 *1:518 0.000138733
87 *1:510 0.000159839
88 *1:508 0.000387893
89 *1:506 0.000318367
90 *1:502 0.000156755
91 *1:499 2.43187e-05
92 *1:497 0.000246469
93 *1:449 0.000324371
94 *1:443 0.000166832
95 *1:433 0.000149786
96 *1:421 7.42695e-05
97 *1:409 0.000137685
98 *1:401 5.75483e-05
99 *1:398 0.000199346
100 *1:379 0.000126456
101 *1:377 0.000157666
102 *1:375 8.29374e-05
103 *1:361 0.000124627
104 *1:359 0.000232735
105 *1:351 0.000151603
106 *1:343 0.000156891
107 *1:329 0.000103134
108 *1:327 0.000105285
109 *1:321 0.000114644
110 *1:317 0.000155474
111 *1:311 7.66273e-05
112 *1:303 8.94817e-05
113 *1:301 0.000119802
114 *1:295 6.13497e-05
115 *1:289 0.000109778
116 *1:253 0.000653694
117 *1:238 0.000154481
118 *1:222 0.000314521
119 *1:210 0.000488827
120 *1:208 0.000422691
121 *1:198 0.000328844
122 *1:192 0.000338474
123 *1:184 0.000241748
124 *1:179 0.000161812
125 *1:154 0.000121964
126 *1:152 0.000282727
127 *1:149 0.000304124
128 *1:139 0.000205375
129 *1:136 0.000243386
130 *1:116 0.000155079
131 *1:115 7.49197e-05
132 *1:95 0.000144846
133 *1:93 5.1769e-05
134 *1:55 0.000173839
135 *1:32 0.000424711
136 *1:27 0.000255368
137 *1:25 0.000203823
138 *1:23 0.000132191
139 *1:19 9.77253e-05
140 *1:12 0.00188107
141 *1:8 0.00022788
142 *1:6 0.000145482
143 *1:5 0.000125568
144 nbusin_nshunt *828:ZN 1.84127e-05
145 nbusin_nshunt *10:208 0.000265962
146 nbusin_nshunt *10:226 8.9762e-05
147 *594:I *547:I 0
148 *594:I *594:ZN 6.13757e-05
149 *598:I *598:ZN 0.000122752
150 *598:I *644:I 0.000245503
151 *598:I *8:237 2.76191e-05
152 *600:I *600:ZN 0.000777207
153 *604:I *570:ZN 6.13757e-05
154 *604:I *646:I 0.000184127
155 *604:I *3:61 6.90477e-06
156 *604:I *3:69 6.90477e-06
157 *604:I *3:72 0.00012434
158 *604:I *3:76 0.000808207
159 *604:I *3:94 0.000184127
160 *604:I *3:120 0.000135027
161 *606:I *598:ZN 1.38095e-05
162 *606:I *600:ZN 6.90231e-05
163 *606:I *8:237 0.000675133
164 *628:ZN *6:19 2.07143e-05
165 *634:ZN *3:69 1.38095e-05
166 *634:ZN *3:128 0
167 *638:ZN *3:61 0.000225045
168 *638:ZN *3:69 6.13758e-05