*SPEF "ieee 1481-1999"
*DESIGN "gyrator"
*DATE "11:11:11 Fri 11 11, 1111"
*VENDOR "OpenRCX"
*PROGRAM "Parallel Extraction"
*VERSION "1.0"
*DESIGN_FLOW "NAME_SCOPE LOCAL" "PIN_CAP NONE"
*DIVIDER /
*DELIMITER :
*BUS_DELIMITER []
*T_UNIT 1 NS
*C_UNIT 1 PF
*R_UNIT 1 OHM
*L_UNIT 1 HENRY

*NAME_MAP
*1 nbus
*2 nload
*3 pbus
*4 pload
*5 FILLER_0_10
*6 FILLER_0_16
*7 FILLER_0_2
*8 FILLER_0_22
*9 FILLER_0_28
*10 FILLER_0_34
*11 FILLER_0_37
*12 FILLER_0_43
*13 FILLER_0_51
*14 FILLER_0_57
*15 FILLER_0_61
*16 FILLER_0_66
*17 FILLER_0_72
*18 FILLER_0_77
*19 FILLER_0_83
*20 FILLER_0_89
*21 FILLER_0_97
*22 FILLER_1_11
*23 FILLER_1_17
*24 FILLER_1_2
*25 FILLER_1_23
*26 FILLER_1_29
*27 FILLER_1_35
*28 FILLER_1_41
*29 FILLER_1_47
*30 FILLER_1_53
*31 FILLER_1_55
*32 FILLER_1_6
*33 FILLER_1_60
*34 FILLER_1_66
*35 FILLER_1_70
*36 FILLER_1_73
*37 FILLER_1_78
*38 FILLER_1_84
*39 FILLER_1_90
*40 FILLER_1_96
*41 FILLER_1_98
*42 FILLER_2_10
*43 FILLER_2_16
*44 FILLER_2_2
*45 FILLER_2_22
*46 FILLER_2_28
*47 FILLER_2_34
*48 FILLER_2_37
*49 FILLER_2_42
*50 FILLER_2_48
*51 FILLER_2_54
*52 FILLER_2_60
*53 FILLER_2_66
*54 FILLER_2_72
*55 FILLER_2_78
*56 FILLER_2_84
*57 FILLER_2_90
*58 FILLER_2_98
*59 FILLER_3_13
*60 FILLER_3_19
*61 FILLER_3_2
*62 FILLER_3_25
*63 FILLER_3_31
*64 FILLER_3_37
*65 FILLER_3_43
*66 FILLER_3_49
*67 FILLER_3_55
*68 FILLER_3_61
*69 FILLER_3_67
*70 FILLER_3_7
*71 FILLER_3_73
*72 FILLER_3_78
*73 FILLER_3_94
*74 FILLER_3_98
*75 FILLER_4_10
*76 FILLER_4_16
*77 FILLER_4_2
*78 FILLER_4_22
*79 FILLER_4_28
*80 FILLER_4_34
*81 FILLER_4_37
*82 FILLER_4_43
*83 FILLER_4_49
*84 FILLER_4_55
*85 FILLER_4_61
*86 FILLER_4_67
*87 FILLER_4_73
*88 FILLER_4_89
*89 FILLER_4_97
*90 FILLER_5_18
*91 FILLER_5_2
*92 FILLER_5_23
*93 FILLER_5_29
*94 FILLER_5_35
*95 FILLER_5_41
*96 FILLER_5_47
*97 FILLER_5_53
*98 FILLER_5_57
*99 FILLER_5_63
*100 FILLER_5_73
*101 FILLER_5_89
*102 FILLER_5_97
*103 FILLER_6_18
*104 FILLER_6_2
*105 FILLER_6_26
*106 FILLER_6_34
*107 FILLER_6_37
*108 FILLER_6_42
*109 FILLER_6_50
*110 FILLER_6_56
*111 FILLER_6_88
*112 FILLER_6_96
*113 FILLER_6_98
*114 FILLER_7_2
*115 FILLER_7_38
*116 FILLER_7_44
*117 FILLER_7_60
*118 FILLER_7_68
*119 FILLER_7_70
*120 FILLER_7_73
*121 FILLER_7_89
*122 FILLER_7_97
*123 FILLER_8_2
*124 FILLER_8_34
*125 FILLER_8_37
*126 FILLER_8_69
*127 FILLER_8_72
*128 FILLER_8_88
*129 FILLER_8_96
*130 FILLER_8_98
*131 PHY_0
*132 PHY_1
*133 PHY_10
*134 PHY_11
*135 PHY_12
*136 PHY_13
*137 PHY_14
*138 PHY_15
*139 PHY_16
*140 PHY_17
*141 PHY_2
*142 PHY_3
*143 PHY_4
*144 PHY_5
*145 PHY_6
*146 PHY_7
*147 PHY_8
*148 PHY_9
*149 TAP_18
*150 TAP_19
*151 TAP_20
*152 TAP_21
*153 TAP_22
*154 TAP_23
*155 TAP_24
*156 TAP_25
*157 TAP_26
*158 TAP_27
*159 TAP_28
*160 u_nauta_f\.gen_FB\[0\]\.fbn
*161 u_nauta_f\.gen_FB\[0\]\.fbp
*162 u_nauta_f\.gen_FB\[1\]\.fbn
*163 u_nauta_f\.gen_FB\[1\]\.fbp
*164 u_nauta_f\.gen_FB\[2\]\.fbn
*165 u_nauta_f\.gen_FB\[2\]\.fbp
*166 u_nauta_f\.gen_FB\[3\]\.fbn
*167 u_nauta_f\.gen_FB\[3\]\.fbp
*168 u_nauta_f\.gen_T\[0\]\.thrun
*169 u_nauta_f\.gen_T\[0\]\.thrup
*170 u_nauta_f\.gen_T\[1\]\.thrun
*171 u_nauta_f\.gen_T\[1\]\.thrup
*172 u_nauta_f\.gen_T\[2\]\.thrun
*173 u_nauta_f\.gen_T\[2\]\.thrup
*174 u_nauta_f\.gen_T\[3\]\.thrun
*175 u_nauta_f\.gen_T\[3\]\.thrup
*176 u_nauta_f\.gen_T\[4\]\.thrun
*177 u_nauta_f\.gen_T\[4\]\.thrup
*178 u_nauta_f\.gen_T\[5\]\.thrun
*179 u_nauta_f\.gen_T\[5\]\.thrup
*180 u_nauta_f\.gen_T\[6\]\.thrun
*181 u_nauta_f\.gen_T\[6\]\.thrup
*182 u_nauta_f\.gen_T\[7\]\.thrun
*183 u_nauta_f\.gen_T\[7\]\.thrup
*184 u_nauta_f\.gen_T\[8\]\.thrun
*185 u_nauta_f\.gen_T\[8\]\.thrup
*186 u_nauta_f\.gen_T\[9\]\.thrun
*187 u_nauta_f\.gen_T\[9\]\.thrup
*188 u_nauta_f\.gen_X\[0\]\.crossn
*189 u_nauta_f\.gen_X\[0\]\.crossp
*190 u_nauta_f\.gen_X\[1\]\.crossn
*191 u_nauta_f\.gen_X\[1\]\.crossp
*192 u_nauta_f\.gen_X\[2\]\.crossn
*193 u_nauta_f\.gen_X\[2\]\.crossp
*194 u_nauta_f\.gen_X\[3\]\.crossn
*195 u_nauta_f\.gen_X\[3\]\.crossp
*196 u_nauta_f\.gen_X\[4\]\.crossn
*197 u_nauta_f\.gen_X\[4\]\.crossp
*198 u_nauta_r\.gen_FB\[0\]\.fbn
*199 u_nauta_r\.gen_FB\[0\]\.fbp
*200 u_nauta_r\.gen_FB\[1\]\.fbn
*201 u_nauta_r\.gen_FB\[1\]\.fbp
*202 u_nauta_r\.gen_FB\[2\]\.fbn
*203 u_nauta_r\.gen_FB\[2\]\.fbp
*204 u_nauta_r\.gen_FB\[3\]\.fbn
*205 u_nauta_r\.gen_FB\[3\]\.fbp
*206 u_nauta_r\.gen_T\[0\]\.thrun
*207 u_nauta_r\.gen_T\[0\]\.thrup
*208 u_nauta_r\.gen_T\[1\]\.thrun
*209 u_nauta_r\.gen_T\[1\]\.thrup
*210 u_nauta_r\.gen_T\[2\]\.thrun
*211 u_nauta_r\.gen_T\[2\]\.thrup
*212 u_nauta_r\.gen_T\[3\]\.thrun
*213 u_nauta_r\.gen_T\[3\]\.thrup
*214 u_nauta_r\.gen_T\[4\]\.thrun
*215 u_nauta_r\.gen_T\[4\]\.thrup
*216 u_nauta_r\.gen_T\[5\]\.thrun
*217 u_nauta_r\.gen_T\[5\]\.thrup
*218 u_nauta_r\.gen_T\[6\]\.thrun
*219 u_nauta_r\.gen_T\[6\]\.thrup
*220 u_nauta_r\.gen_T\[7\]\.thrun
*221 u_nauta_r\.gen_T\[7\]\.thrup
*222 u_nauta_r\.gen_T\[8\]\.thrun
*223 u_nauta_r\.gen_T\[8\]\.thrup
*224 u_nauta_r\.gen_T\[9\]\.thrun
*225 u_nauta_r\.gen_T\[9\]\.thrup
*226 u_nauta_r\.gen_X\[0\]\.crossn
*227 u_nauta_r\.gen_X\[0\]\.crossp
*228 u_nauta_r\.gen_X\[1\]\.crossn
*229 u_nauta_r\.gen_X\[1\]\.crossp
*230 u_nauta_r\.gen_X\[2\]\.crossn
*231 u_nauta_r\.gen_X\[2\]\.crossp
*232 u_nauta_r\.gen_X\[3\]\.crossn
*233 u_nauta_r\.gen_X\[3\]\.crossp
*234 u_nauta_r\.gen_X\[4\]\.crossn
*235 u_nauta_r\.gen_X\[4\]\.crossp

*PORTS
nbus I
nload I
pbus I
pload I

*D_NET *1 0.0258057
*CONN
*P nbus I
*I *198:I I *D gf180mcu_fd_sc_mcu7t5v0__inv_1
*I *227:I I *D gf180mcu_fd_sc_mcu7t5v0__inv_1
*I *171:I I *D gf180mcu_fd_sc_mcu7t5v0__inv_1
*I *228:ZN O *D gf180mcu_fd_sc_mcu7t5v0__inv_1
*I *226:ZN O *D gf180mcu_fd_sc_mcu7t5v0__inv_1
*I *235:I I *D gf180mcu_fd_sc_mcu7t5v0__inv_1
*I *198:ZN O *D gf180mcu_fd_sc_mcu7t5v0__inv_1
*I *181:I I *D gf180mcu_fd_sc_mcu7t5v0__inv_1
*I *202:ZN O *D gf180mcu_fd_sc_mcu7t5v0__inv_1
*I *183:I I *D gf180mcu_fd_sc_mcu7t5v0__inv_1
*I *216:ZN O *D gf180mcu_fd_sc_mcu7t5v0__inv_1
*I *210:ZN O *D gf180mcu_fd_sc_mcu7t5v0__inv_1
*I *206:ZN O *D gf180mcu_fd_sc_mcu7t5v0__inv_1
*I *169:I I *D gf180mcu_fd_sc_mcu7t5v0__inv_1
*I *187:I I *D gf180mcu_fd_sc_mcu7t5v0__inv_1
*I *179:I I *D gf180mcu_fd_sc_mcu7t5v0__inv_1
*I *185:I I *D gf180mcu_fd_sc_mcu7t5v0__inv_1
*I *175:I I *D gf180mcu_fd_sc_mcu7t5v0__inv_1
*I *208:ZN O *D gf180mcu_fd_sc_mcu7t5v0__inv_1
*I *220:ZN O *D gf180mcu_fd_sc_mcu7t5v0__inv_1
*I *177:I I *D gf180mcu_fd_sc_mcu7t5v0__inv_1
*I *224:ZN O *D gf180mcu_fd_sc_mcu7t5v0__inv_1
*I *173:I I *D gf180mcu_fd_sc_mcu7t5v0__inv_1
*I *212:ZN O *D gf180mcu_fd_sc_mcu7t5v0__inv_1
*I *204:ZN O *D gf180mcu_fd_sc_mcu7t5v0__inv_1
*I *204:I I *D gf180mcu_fd_sc_mcu7t5v0__inv_1
*I *218:ZN O *D gf180mcu_fd_sc_mcu7t5v0__inv_1
*I *214:ZN O *D gf180mcu_fd_sc_mcu7t5v0__inv_1
*I *222:ZN O *D gf180mcu_fd_sc_mcu7t5v0__inv_1
*I *202:I I *D gf180mcu_fd_sc_mcu7t5v0__inv_1
*I *200:ZN O *D gf180mcu_fd_sc_mcu7t5v0__inv_1
*I *200:I I *D gf180mcu_fd_sc_mcu7t5v0__inv_1
*I *232:ZN O *D gf180mcu_fd_sc_mcu7t5v0__inv_1
*I *233:I I *D gf180mcu_fd_sc_mcu7t5v0__inv_1
*I *230:ZN O *D gf180mcu_fd_sc_mcu7t5v0__inv_1
*I *231:I I *D gf180mcu_fd_sc_mcu7t5v0__inv_1
*I *229:I I *D gf180mcu_fd_sc_mcu7t5v0__inv_1
*I *234:ZN O *D gf180mcu_fd_sc_mcu7t5v0__inv_1
*CAP
1 nbus 0.000590637
2 *198:I 0
3 *227:I 0.00010041
4 *171:I 0
5 *228:ZN 0.000125327
6 *226:ZN 2.62511e-05
7 *235:I 0
8 *198:ZN 0
9 *181:I 3.43242e-05
10 *202:ZN 0
11 *183:I 0
12 *216:ZN 0
13 *210:ZN 5.64546e-05
14 *206:ZN 0
15 *169:I 0
16 *187:I 0.000102617
17 *179:I 0
18 *185:I 5.69648e-05
19 *175:I 0
20 *208:ZN 0
21 *220:ZN 0.000106122
22 *177:I 9.58387e-05
23 *224:ZN 0
24 *173:I 3.80359e-05
25 *212:ZN 0
26 *204:ZN 2.2595e-05
27 *204:I 0
28 *218:ZN 2.05293e-05
29 *214:ZN 0
30 *222:ZN 3.39724e-05
31 *202:I 2.67812e-05
32 *200:ZN 0
33 *200:I 2.84341e-05
34 *232:ZN 4.55656e-05
35 *233:I 0
36 *230:ZN 4.5471e-05
37 *231:I 0
38 *229:I 0.000164345
39 *234:ZN 0
40 *1:286 0.00016896
41 *1:278 0.000251903
42 *1:266 0.000197706
43 *1:229 0.000243144
44 *1:225 0.000576933
45 *1:209 0.000167994
46 *1:206 0.000509872
47 *1:199 9.17819e-05
48 *1:190 0.000167856
49 *1:187 0.00010316
50 *1:181 0.00016169
51 *1:161 0.000245293
52 *1:155 0.000181539
53 *1:137 0.000261049
54 *1:111 0.000731517
55 *1:103 0.000289814
56 *1:101 9.93302e-05
57 *1:100 0.000242932
58 *1:91 0.000107725
59 *1:83 0.000151272
60 *1:79 0.000121983
61 *1:72 6.12874e-05
62 *1:61 0.000127125
63 *1:57 0.000127399
64 *1:56 0.000163157
65 *1:52 0.00024986
66 *1:49 7.87581e-05
67 *1:38 0.00012686
68 *1:31 9.85865e-05
69 *1:22 0.00014275
70 *1:15 8.7472e-05
71 *1:5 0.000214281
72 *173:I *212:I 0.000675133
73 *173:I *2:122 0.000196402
74 *177:I *2:122 0.000613757
75 *185:I *171:ZN 0.00013963
76 *185:I *187:ZN 4.91006e-05
77 *185:I *4:228 0.000797884
78 *187:I *187:ZN 0.000675133
79 *187:I *219:I 8.28573e-05
80 *187:I *3:269 0
81 *210:ZN *191:ZN 3.10849e-06
82 *210:ZN *209:I 0.000207232
83 *218:ZN *218:I 1.22751e-05
84 *220:ZN *177:ZN 0
85 *222:ZN *222:I 0.000310849
86 *222:ZN *2:44 0.000186509
87 *226:ZN *226:I 6.13757e-05
88 *226:ZN *3:259 0.000613757
89 *227:I *171:ZN 2.04586e-05
90 *227:I *187:ZN 0
91 *227:I *3:269 0.000184127
92 *228:ZN *226:I 1.79013e-05
93 *228:ZN *3:269 8.28573e-05
94 *229:I *203:I 3.68254e-05
95 *229:I *234:I 0.000247774
96 *229:I *3:201 0.000110476
97 *230:ZN *230:I 0.000797884
98 *230:ZN *3:11 8.9762e-05
99 *232:ZN *232:I 6.13757e-05
100 *232:ZN *3:11 0.000797775
101 *232:ZN *3:259 8.95063e-06
102 *1:15 *234:I 0.000621698
103 *1:22 *234:I 0.00012434
104 *1:22 *3:14 0.000186509
105 *1:31 *3:14 0.000497358
106 *1:38 *3:10 9.32547e-06
107 *1:38 *3:14 0.000124229
108 *1:49 *3:10 2.79764e-05
109 *1:52 *3:11 1.38095e-05
110 *1:61 *3:14 4.89586e-05
111 *1:79 *3:26 0
112 *1:79 *4:153 8.95063e-06
113 *1:83 *3:26 0
114 *1:83 *4:153 9.8457e-05
115 *1:91 *2:42 0.000186509
116 *1:91 *2:44 0.000248679
117 *1:100 *2:40 0.000186509
118 *1:100 *2:42 0.000870266
119 *1:100 *4:146 7.6935e-05
120 *1:101 *212:I 2.68519e-05
121 *1:101 *218:I 0.000122751
122 *1:103 *212:I 8.05557e-05
123 *1:103 *218:I 0.000552162
124 *1:103 *221:I 0
125 *1:111 *213:ZN 0
126 *1:155 *2:122 0.000675133
127 *1:161 *2:122 0.000306879
128 *1:181 *173:ZN 1.84127e-05
129 *1:181 *4:153 0
130 *1:181 *4:222 0.000306879
131 *1:187 *171:ZN 0.000122751
132 *1:187 *4:222 0.000675133
133 *1:190 *4:225 0.000435189
134 *1:199 *4:225 0.00012434
135 *1:199 *4:242 0.000186509
136 *1:206 *4:242 0.00012434
137 *1:206 *4:251 0.000435189
138 *1:209 *187:ZN 4.91006e-05
139 *1:209 *219:I 4.91006e-05
140 *1:209 *4:228 8.28573e-05
141 *1:209 *4:252 2.04586e-05
142 *1:209 *4:258 0.00024543
143 *1:225 *191:ZN 0.000104911
144 *1:225 *4:64 4.97233e-05
145 *1:225 *4:251 0.000248679
146 *1:229 *191:I 9.8457e-05
147 *1:229 *191:ZN 3.41823e-05
148 *1:229 *209:I 0.000227881
149 *1:229 *216:I 0.00141164
150 *1:266 *171:ZN 0
151 *1:266 *3:259 0.000306879
*RES
1 *234:ZN *1:5 9 
2 *1:5 *229:I 10.62 
3 *1:5 *1:15 0.99 
4 *1:15 *231:I 9 
5 *1:15 *1:22 0.45 
6 *1:22 *230:ZN 10.17 
7 *1:22 *1:31 0.81 
8 *1:31 *233:I 9 
9 *1:31 *1:38 0.45 
10 *1:38 *232:ZN 10.17 
11 *1:38 *1:49 5.31 
12 *1:49 *1:52 0.54 
13 *1:52 *1:56 5.49 
14 *1:56 *1:57 0.63 
15 *1:57 *1:61 5.67 
16 *1:61 *200:I 4.77 
17 *1:61 *200:ZN 4.5 
18 *1:57 *1:72 4.5 
19 *1:72 *202:I 4.77 
20 *1:72 *1:79 0.45 
21 *1:79 *1:83 5.49 
22 *1:83 *222:ZN 9.63 
23 *1:83 *1:91 0.63 
24 *1:91 *214:ZN 9 
25 *1:91 *1:100 6.03 
26 *1:100 *1:101 0.45 
27 *1:101 *1:103 1.35 
28 *1:103 *218:ZN 4.77 
29 *1:103 *1:111 1.17 
30 *1:111 nbus 6.525 
31 *1:111 *204:I 4.5 
32 *1:111 *204:ZN 4.77 
33 *1:103 *1:137 0.99 
34 *1:137 *212:ZN 4.5 
35 *1:137 *173:I 6.03 
36 *1:137 *1:155 2.52 
37 *1:155 *224:ZN 4.5 
38 *1:155 *1:161 0.63 
39 *1:161 *177:I 5.76 
40 *1:161 *220:ZN 5.67 
41 *1:101 *208:ZN 4.5 
42 *1:100 *1:181 1.35 
43 *1:181 *175:I 4.5 
44 *1:181 *1:187 1.17 
45 *1:187 *1:190 5.31 
46 *1:190 *185:I 10.53 
47 *1:190 *1:199 0.45 
48 *1:199 *179:I 9 
49 *1:199 *1:206 0.81 
50 *1:206 *1:209 6.03 
51 *1:209 *187:I 6.12 
52 *1:209 *169:I 4.5 
53 *1:206 *1:225 8.37 
54 *1:225 *1:229 7.56 
55 *1:229 *206:ZN 9 
56 *1:229 *210:ZN 9.99 
57 *1:225 *216:ZN 4.5 
58 *1:187 *183:I 4.5 
59 *1:79 *202:ZN 4.5 
60 *1:56 *181:I 9.45 
61 *1:52 *198:ZN 4.5 
62 *1:52 *1:266 1.71 
63 *1:266 *235:I 4.5 
64 *1:266 *226:ZN 5.49 
65 *1:266 *1:278 0.63 
66 *1:278 *228:ZN 6.75 
67 *1:278 *1:286 0.63 
68 *1:286 *171:I 4.5 
69 *1:286 *227:I 5.94 
70 *1:49 *198:I 4.5 
*END

*D_NET *2 0.0244848
*CONN
*P nload I
*I *191:I I *D gf180mcu_fd_sc_mcu7t5v0__inv_1
*I *206:I I *D gf180mcu_fd_sc_mcu7t5v0__inv_1
*I *216:I I *D gf180mcu_fd_sc_mcu7t5v0__inv_1
*I *190:ZN O *D gf180mcu_fd_sc_mcu7t5v0__inv_1
*I *192:ZN O *D gf180mcu_fd_sc_mcu7t5v0__inv_1
*I *188:ZN O *D gf180mcu_fd_sc_mcu7t5v0__inv_1
*I *195:I I *D gf180mcu_fd_sc_mcu7t5v0__inv_1
*I *197:I I *D gf180mcu_fd_sc_mcu7t5v0__inv_1
*I *189:I I *D gf180mcu_fd_sc_mcu7t5v0__inv_1
*I *193:I I *D gf180mcu_fd_sc_mcu7t5v0__inv_1
*I *224:I I *D gf180mcu_fd_sc_mcu7t5v0__inv_1
*I *160:ZN O *D gf180mcu_fd_sc_mcu7t5v0__inv_1
*I *164:ZN O *D gf180mcu_fd_sc_mcu7t5v0__inv_1
*I *170:ZN O *D gf180mcu_fd_sc_mcu7t5v0__inv_1
*I *184:ZN O *D gf180mcu_fd_sc_mcu7t5v0__inv_1
*I *174:ZN O *D gf180mcu_fd_sc_mcu7t5v0__inv_1
*I *210:I I *D gf180mcu_fd_sc_mcu7t5v0__inv_1
*I *166:ZN O *D gf180mcu_fd_sc_mcu7t5v0__inv_1
*I *166:I I *D gf180mcu_fd_sc_mcu7t5v0__inv_1
*I *168:ZN O *D gf180mcu_fd_sc_mcu7t5v0__inv_1
*I *164:I I *D gf180mcu_fd_sc_mcu7t5v0__inv_1
*I *176:ZN O *D gf180mcu_fd_sc_mcu7t5v0__inv_1
*I *160:I I *D gf180mcu_fd_sc_mcu7t5v0__inv_1
*I *220:I I *D gf180mcu_fd_sc_mcu7t5v0__inv_1
*I *212:I I *D gf180mcu_fd_sc_mcu7t5v0__inv_1
*I *208:I I *D gf180mcu_fd_sc_mcu7t5v0__inv_1
*I *218:I I *D gf180mcu_fd_sc_mcu7t5v0__inv_1
*I *214:I I *D gf180mcu_fd_sc_mcu7t5v0__inv_1
*I *182:ZN O *D gf180mcu_fd_sc_mcu7t5v0__inv_1
*I *178:ZN O *D gf180mcu_fd_sc_mcu7t5v0__inv_1
*I *186:ZN O *D gf180mcu_fd_sc_mcu7t5v0__inv_1
*I *172:ZN O *D gf180mcu_fd_sc_mcu7t5v0__inv_1
*I *180:ZN O *D gf180mcu_fd_sc_mcu7t5v0__inv_1
*I *222:I I *D gf180mcu_fd_sc_mcu7t5v0__inv_1
*I *162:ZN O *D gf180mcu_fd_sc_mcu7t5v0__inv_1
*I *162:I I *D gf180mcu_fd_sc_mcu7t5v0__inv_1
*I *194:ZN O *D gf180mcu_fd_sc_mcu7t5v0__inv_1
*I *196:ZN O *D gf180mcu_fd_sc_mcu7t5v0__inv_1
*CAP
1 nload 0.000538292
2 *191:I 0.000127732
3 *206:I 0
4 *216:I 0.000132132
5 *190:ZN 0
6 *192:ZN 0
7 *188:ZN 0
8 *195:I 0.000331385
9 *197:I 0
10 *189:I 9.39404e-05
11 *193:I 0
12 *224:I 0
13 *160:ZN 0
14 *164:ZN 0
15 *170:ZN 6.87867e-05
16 *184:ZN 6.99664e-05
17 *174:ZN 0
18 *210:I 0.000126129
19 *166:ZN 0
20 *166:I 2.79058e-05
21 *168:ZN 0
22 *164:I 8.05742e-05
23 *176:ZN 0
24 *160:I 0
25 *220:I 0
26 *212:I 3.80813e-05
27 *208:I 0
28 *218:I 9.98778e-05
29 *214:I 0
30 *182:ZN 0
31 *178:ZN 0
32 *186:ZN 5.17732e-05
33 *172:ZN 2.84321e-05
34 *180:ZN 0.000106978
35 *222:I 3.92867e-05
36 *162:ZN 0
37 *162:I 2.67812e-05
38 *194:ZN 0
39 *196:ZN 0.000121172
40 *2:296 0.000165707
41 *2:282 0.000132132
42 *2:280 7.35395e-05
43 *2:253 0.000352379
44 *2:245 0.000223441
45 *2:239 0.000124633
46 *2:208 0.000700102
47 *2:200 0.000252962
48 *2:191 0.000227505
49 *2:167 7.55864e-05
50 *2:164 0.000173809
51 *2:162 0.000256048
52 *2:159 0.000168328
53 *2:146 0.000255115
54 *2:141 0.000178939
55 *2:134 0.000142637
56 *2:125 0.000183115
57 *2:122 0.000177738
58 *2:101 9.98778e-05
59 *2:74 8.02053e-05
60 *2:63 0.000164227
61 *2:61 0.000173721
62 *2:58 0.000334627
63 *2:44 0.000273797
64 *2:42 0.000124697
65 *2:40 0.000206194
66 *2:38 0.000229462
67 *2:36 0.000259185
68 *2:34 0.000194565
69 *2:31 0.000161526
70 *2:25 7.5591e-05
71 *2:18 0.000117931
72 *2:13 0.000152486
73 *2:7 0.000227969
74 *164:I pload 0
75 *180:ZN *3:33 0
76 *180:ZN *3:39 7.6935e-05
77 *180:ZN *3:40 0.00042963
78 *180:ZN *3:63 0.000111905
79 *180:ZN *3:70 6.21697e-05
80 *184:ZN *170:I 0
81 *186:ZN *207:ZN 2.14815e-05
82 *189:I *189:ZN 3.68254e-05
83 *195:I *161:I 1.79013e-05
84 *195:I *167:ZN 3.68254e-05
85 *195:I *195:ZN 3.68254e-05
86 *195:I *219:I 0.000306879
87 *195:I *4:5 1.79013e-05
88 *195:I *4:35 6.8792e-05
89 *195:I *4:43 0
90 *195:I *4:252 6.13758e-05
91 *195:I *4:258 0.000245503
92 *210:I *209:ZN 3.06879e-05
93 *210:I *3:141 3.98942e-05
94 *216:I *165:I 9.20636e-06
95 *216:I *4:71 2.76081e-05
96 *218:I *4:153 2.14815e-05
97 *222:I *4:166 3.49705e-05
98 *2:7 pload 0
99 *2:7 *4:29 0
100 *2:7 *4:99 6.13758e-05
101 *2:7 *4:101 4.09172e-05
102 *2:13 *4:101 0.000552162
103 *2:18 *4:96 3.10793e-05
104 *2:18 *4:121 3.10849e-06
105 *2:25 *177:ZN 3.06879e-06
106 *2:25 *4:101 2.07143e-05
107 *2:31 *177:ZN 2.45503e-05
108 *2:31 *4:101 6.21429e-05
109 *2:34 *4:20 0.000683868
110 *2:34 *4:96 0.00012434
111 *2:34 *4:140 6.21698e-06
112 *2:36 *4:140 2.17539e-05
113 *2:38 *4:140 1.2434e-05
114 *2:38 *4:142 1.55425e-05
115 *2:40 *4:142 1.86509e-05
116 *2:40 *4:146 6.21698e-06
117 *2:42 *4:166 1.39882e-05
118 *2:44 *4:166 4.19646e-05
119 *2:58 *221:I 0.000148836
120 *2:58 *225:ZN 0.000564657
121 *2:58 *3:26 0
122 *2:58 *4:153 7.72312e-05
123 *2:58 *4:171 0
124 *2:61 *3:29 0
125 *2:61 *3:77 2.48679e-05
126 *2:61 *3:86 0.000111883
127 *2:61 *3:103 3.72796e-05
128 *2:61 *4:166 3.10849e-06
129 *2:63 *3:29 0
130 *2:63 *3:33 0
131 *2:63 *3:70 9.94715e-05
132 *2:63 *3:77 3.73018e-05
133 *2:122 *177:ZN 7.16051e-05
134 *2:125 *3:118 0.000808096
135 *2:134 *3:118 0.00111906
136 *2:141 pload 0.000327593
137 *2:146 *3:118 0.000261113
138 *2:146 *3:125 3.73018e-05
139 *2:162 *209:I 0
140 *2:162 *3:125 2.79764e-05
141 *2:162 *3:134 1.55425e-05
142 *2:167 *3:141 8.5926e-05
143 *2:191 *170:I 2.07232e-05
144 *2:191 *209:I 0
145 *2:191 *3:134 2.48679e-05
146 *2:200 *3:141 8.13229e-05
147 *2:200 *3:147 2.04586e-05
148 *2:208 *170:I 0
149 *2:239 *177:ZN 0.000184127
150 *2:245 *173:ZN 4.83334e-05
151 *2:245 *177:ZN 6.13757e-05
152 *2:245 *4:7 0.000368145
153 *2:245 *4:9 0.000245503
154 *2:245 *4:29 1.22751e-05
155 *2:245 *4:222 0
156 *2:253 *4:5 1.22751e-05
157 *2:280 *209:I 4.14464e-05
158 *2:280 *4:121 0.000227955
159 *2:296 *209:I 0.000227918
160 *173:I *212:I 0.000675133
161 *173:I *2:122 0.000196402
162 *177:I *2:122 0.000613757
163 *218:ZN *218:I 1.22751e-05
164 *222:ZN *222:I 0.000310849
165 *222:ZN *2:44 0.000186509
166 *1:91 *2:42 0.000186509
167 *1:91 *2:44 0.000248679
168 *1:100 *2:40 0.000186509
169 *1:100 *2:42 0.000870266
170 *1:101 *212:I 2.68519e-05
171 *1:101 *218:I 0.000122751
172 *1:103 *212:I 8.05557e-05
173 *1:103 *218:I 0.000552162
174 *1:155 *2:122 0.000675133
175 *1:161 *2:122 0.000306879
176 *1:229 *191:I 9.8457e-05
177 *1:229 *216:I 0.00141164
*RES
1 *196:ZN *2:7 6.12 
2 *2:7 *194:ZN 4.5 
3 *2:7 *2:13 0.81 
4 *2:13 *2:18 10.17 
5 *2:18 *162:I 4.77 
6 *2:18 *2:25 0.27 
7 *2:25 *162:ZN 4.5 
8 *2:25 *2:31 0.81 
9 *2:31 *2:34 5.85 
10 *2:34 *2:36 0.63 
11 *2:36 *2:38 0.81 
12 *2:38 *2:40 0.99 
13 *2:40 *2:42 1.53 
14 *2:42 *2:44 0.63 
15 *2:44 *222:I 9.63 
16 *2:44 *2:58 7.11 
17 *2:58 *2:61 5.67 
18 *2:61 *2:63 0.99 
19 *2:63 *180:ZN 10.8 
20 *2:63 *2:74 4.5 
21 *2:74 *172:ZN 4.77 
22 *2:74 *186:ZN 5.13 
23 *2:61 *178:ZN 9 
24 *2:58 *182:ZN 4.5 
25 *2:42 *214:I 9 
26 *2:40 *2:101 4.5 
27 *2:101 *218:I 5.76 
28 *2:101 *208:I 4.5 
29 *2:38 *212:I 9.99 
30 *2:36 *2:122 6.93 
31 *2:122 *2:125 5.67 
32 *2:125 *220:I 9 
33 *2:125 *2:134 6.21 
34 *2:134 *160:I 4.5 
35 *2:134 *2:141 0.72 
36 *2:141 *2:146 11.07 
37 *2:146 *176:ZN 4.5 
38 *2:146 *164:I 5.49 
39 *2:146 *2:159 0.9 
40 *2:159 *2:162 5.67 
41 *2:162 *2:164 4.5 
42 *2:164 *2:167 0.9 
43 *2:167 *168:ZN 4.5 
44 *2:167 *166:I 5.49 
45 *2:164 *166:ZN 4.5 
46 *2:164 *210:I 6.03 
47 *2:162 *2:191 5.67 
48 *2:191 *174:ZN 4.5 
49 *2:191 *2:200 5.94 
50 *2:200 *184:ZN 9.63 
51 *2:200 *2:208 0.81 
52 *2:208 *170:ZN 9.99 
53 *2:208 nload 9.495 
54 *2:159 *164:ZN 4.5 
55 *2:141 *160:ZN 4.5 
56 *2:122 *224:I 4.5 
57 *2:34 *2:239 4.77 
58 *2:239 *193:I 4.5 
59 *2:239 *2:245 1.53 
60 *2:245 *189:I 5.49 
61 *2:245 *2:253 0.27 
62 *2:253 *197:I 4.5 
63 *2:253 *195:I 8.82 
64 *2:31 *188:ZN 4.5 
65 *2:13 *192:ZN 4.5 
66 *2:7 *2:280 5.67 
67 *2:280 *2:282 4.5 
68 *2:282 *190:ZN 4.5 
69 *2:282 *216:I 7.29 
70 *2:280 *2:296 5.76 
71 *2:296 *206:I 4.5 
72 *2:296 *191:I 6.03 
*END

*D_NET *3 0.021897
*CONN
*P pbus I
*I *226:I I *D gf180mcu_fd_sc_mcu7t5v0__inv_1
*I *219:ZN O *D gf180mcu_fd_sc_mcu7t5v0__inv_1
*I *199:I I *D gf180mcu_fd_sc_mcu7t5v0__inv_1
*I *199:ZN O *D gf180mcu_fd_sc_mcu7t5v0__inv_1
*I *228:I I *D gf180mcu_fd_sc_mcu7t5v0__inv_1
*I *227:ZN O *D gf180mcu_fd_sc_mcu7t5v0__inv_1
*I *232:I I *D gf180mcu_fd_sc_mcu7t5v0__inv_1
*I *233:ZN O *D gf180mcu_fd_sc_mcu7t5v0__inv_1
*I *230:I I *D gf180mcu_fd_sc_mcu7t5v0__inv_1
*I *231:ZN O *D gf180mcu_fd_sc_mcu7t5v0__inv_1
*I *211:ZN O *D gf180mcu_fd_sc_mcu7t5v0__inv_1
*I *215:ZN O *D gf180mcu_fd_sc_mcu7t5v0__inv_1
*I *217:ZN O *D gf180mcu_fd_sc_mcu7t5v0__inv_1
*I *186:I I *D gf180mcu_fd_sc_mcu7t5v0__inv_1
*I *229:ZN O *D gf180mcu_fd_sc_mcu7t5v0__inv_1
*I *203:I I *D gf180mcu_fd_sc_mcu7t5v0__inv_1
*I *203:ZN O *D gf180mcu_fd_sc_mcu7t5v0__inv_1
*I *223:ZN O *D gf180mcu_fd_sc_mcu7t5v0__inv_1
*I *205:I I *D gf180mcu_fd_sc_mcu7t5v0__inv_1
*I *205:ZN O *D gf180mcu_fd_sc_mcu7t5v0__inv_1
*I *180:I I *D gf180mcu_fd_sc_mcu7t5v0__inv_1
*I *184:I I *D gf180mcu_fd_sc_mcu7t5v0__inv_1
*I *209:ZN O *D gf180mcu_fd_sc_mcu7t5v0__inv_1
*I *170:I I *D gf180mcu_fd_sc_mcu7t5v0__inv_1
*I *174:I I *D gf180mcu_fd_sc_mcu7t5v0__inv_1
*I *168:I I *D gf180mcu_fd_sc_mcu7t5v0__inv_1
*I *176:I I *D gf180mcu_fd_sc_mcu7t5v0__inv_1
*I *213:ZN O *D gf180mcu_fd_sc_mcu7t5v0__inv_1
*I *221:ZN O *D gf180mcu_fd_sc_mcu7t5v0__inv_1
*I *225:ZN O *D gf180mcu_fd_sc_mcu7t5v0__inv_1
*I *182:I I *D gf180mcu_fd_sc_mcu7t5v0__inv_1
*I *207:ZN O *D gf180mcu_fd_sc_mcu7t5v0__inv_1
*I *178:I I *D gf180mcu_fd_sc_mcu7t5v0__inv_1
*I *172:I I *D gf180mcu_fd_sc_mcu7t5v0__inv_1
*I *201:I I *D gf180mcu_fd_sc_mcu7t5v0__inv_1
*I *201:ZN O *D gf180mcu_fd_sc_mcu7t5v0__inv_1
*I *234:I I *D gf180mcu_fd_sc_mcu7t5v0__inv_1
*I *235:ZN O *D gf180mcu_fd_sc_mcu7t5v0__inv_1
*CAP
1 pbus 0.000533349
2 *226:I 2.0807e-05
3 *219:ZN 0.000301738
4 *199:I 2.67812e-05
5 *199:ZN 0
6 *228:I 8.8606e-05
7 *227:ZN 0
8 *232:I 6.34735e-06
9 *233:ZN 0
10 *230:I 0.000120948
11 *231:ZN 0
12 *211:ZN 0
13 *215:ZN 3.43778e-05
14 *217:ZN 0
15 *186:I 0
16 *229:ZN 0
17 *203:I 3.8781e-05
18 *203:ZN 0
19 *223:ZN 0
20 *205:I 4.97566e-05
21 *205:ZN 0
22 *180:I 0
23 *184:I 0
24 *209:ZN 0.000113455
25 *170:I 0.000117867
26 *174:I 0
27 *168:I 0
28 *176:I 0
29 *213:ZN 0.000106381
30 *221:ZN 0
31 *225:ZN 9.83288e-05
32 *182:I 0
33 *207:ZN 8.78985e-05
34 *178:I 0
35 *172:I 0
36 *201:I 0
37 *201:ZN 0
38 *234:I 0.000103091
39 *235:ZN 4.55413e-05
40 *3:277 5.35624e-05
41 *3:269 0.00026704
42 *3:264 0.000151653
43 *3:262 0.000524926
44 *3:259 0.00032719
45 *3:201 0.000158321
46 *3:197 0.000234753
47 *3:177 0.000199022
48 *3:173 0.000176046
49 *3:171 0.000232472
50 *3:147 0.000253326
51 *3:141 0.000189277
52 *3:134 0.00028492
53 *3:125 0.000221388
54 *3:118 0.000745172
55 *3:105 0.000106381
56 *3:103 0.000780075
57 *3:88 9.83288e-05
58 *3:86 0.000213285
59 *3:77 0.000194242
60 *3:70 0.000103218
61 *3:63 0.000155595
62 *3:46 0.000555666
63 *3:40 0.000247185
64 *3:39 0.000331376
65 *3:34 0.000158413
66 *3:33 0.000110563
67 *3:29 0.000136656
68 *3:26 0.000285811
69 *3:25 0.000356741
70 *3:14 0.000169741
71 *3:11 0.000132615
72 *3:10 0.000185473
73 *3:6 0.000241897
74 *213:ZN *221:I 0.000687408
75 *213:ZN *4:153 1.38095e-05
76 *215:ZN *215:I 0.000675133
77 *215:ZN *4:171 0.000102293
78 *225:ZN *221:I 1.22751e-05
79 *225:ZN *4:167 2.68519e-05
80 *3:26 *215:I 3.58025e-05
81 *3:26 *4:171 0.000306879
82 *3:29 *4:174 0.000103616
83 *3:33 *4:174 4.14464e-05
84 *3:33 *4:176 0.000103616
85 *3:34 *4:171 5.52258e-05
86 *3:39 *223:I 0
87 *3:103 *4:166 0
88 *3:197 *215:I 3.37566e-05
89 *3:201 *215:I 0
90 *180:ZN *3:33 0
91 *180:ZN *3:39 7.6935e-05
92 *180:ZN *3:40 0.00042963
93 *180:ZN *3:63 0.000111905
94 *180:ZN *3:70 6.21697e-05
95 *184:ZN *170:I 0
96 *186:ZN *207:ZN 2.14815e-05
97 *187:I *3:269 0
98 *210:I *209:ZN 3.06879e-05
99 *210:I *3:141 3.98942e-05
100 *226:ZN *226:I 6.13757e-05
101 *226:ZN *3:259 0.000613757
102 *227:I *3:269 0.000184127
103 *228:ZN *226:I 1.79013e-05
104 *228:ZN *3:269 8.28573e-05
105 *229:I *203:I 3.68254e-05
106 *229:I *234:I 0.000247774
107 *229:I *3:201 0.000110476
108 *230:ZN *230:I 0.000797884
109 *230:ZN *3:11 8.9762e-05
110 *232:ZN *232:I 6.13757e-05
111 *232:ZN *3:11 0.000797775
112 *232:ZN *3:259 8.95063e-06
113 *1:15 *234:I 0.000621698
114 *1:22 *234:I 0.00012434
115 *1:22 *3:14 0.000186509
116 *1:31 *3:14 0.000497358
117 *1:38 *3:10 9.32547e-06
118 *1:38 *3:14 0.000124229
119 *1:49 *3:10 2.79764e-05
120 *1:52 *3:11 1.38095e-05
121 *1:61 *3:14 4.89586e-05
122 *1:79 *3:26 0
123 *1:83 *3:26 0
124 *1:111 *213:ZN 0
125 *1:266 *3:259 0.000306879
126 *2:58 *225:ZN 0.000564657
127 *2:58 *3:26 0
128 *2:61 *3:29 0
129 *2:61 *3:77 2.48679e-05
130 *2:61 *3:86 0.000111883
131 *2:61 *3:103 3.72796e-05
132 *2:63 *3:29 0
133 *2:63 *3:33 0
134 *2:63 *3:70 9.94715e-05
135 *2:63 *3:77 3.73018e-05
136 *2:125 *3:118 0.000808096
137 *2:134 *3:118 0.00111906
138 *2:146 *3:118 0.000261113
139 *2:146 *3:125 3.73018e-05
140 *2:162 *3:125 2.79764e-05
141 *2:162 *3:134 1.55425e-05
142 *2:167 *3:141 8.5926e-05
143 *2:191 *170:I 2.07232e-05
144 *2:191 *3:134 2.48679e-05
145 *2:200 *3:141 8.13229e-05
146 *2:200 *3:147 2.04586e-05
147 *2:208 *170:I 0
*RES
1 *235:ZN *3:6 9.45 
2 *3:6 *3:10 5.49 
3 *3:10 *3:11 1.35 
4 *3:11 *3:14 5.67 
5 *3:14 *234:I 10.62 
6 *3:14 *3:25 4.5 
7 *3:25 *3:26 2.61 
8 *3:26 *3:29 5.13 
9 *3:29 *3:33 5.13 
10 *3:33 *3:34 0.99 
11 *3:34 *3:39 10.17 
12 *3:39 *3:40 1.53 
13 *3:40 *201:ZN 4.5 
14 *3:40 *3:46 0.27 
15 *3:46 pbus 5.265 
16 *3:46 *201:I 4.5 
17 *3:40 *3:63 5.49 
18 *3:63 *172:I 9 
19 *3:63 *3:70 1.17 
20 *3:70 *178:I 9 
21 *3:70 *3:77 0.45 
22 *3:77 *207:ZN 10.17 
23 *3:77 *3:86 0.81 
24 *3:86 *3:88 4.5 
25 *3:88 *182:I 4.5 
26 *3:88 *225:ZN 6.21 
27 *3:86 *3:103 1.35 
28 *3:103 *3:105 4.5 
29 *3:105 *221:ZN 4.5 
30 *3:105 *213:ZN 5.94 
31 *3:103 *3:118 7.65 
32 *3:118 *176:I 9 
33 *3:118 *3:125 1.17 
34 *3:125 *168:I 9 
35 *3:125 *3:134 5.67 
36 *3:134 *3:141 2.34 
37 *3:141 *174:I 4.5 
38 *3:141 *3:147 0.27 
39 *3:147 *170:I 14.49 
40 *3:147 *209:ZN 5.49 
41 *3:134 *184:I 4.5 
42 *3:39 *180:I 4.5 
43 *3:39 *3:171 0.99 
44 *3:171 *3:173 0.27 
45 *3:173 *3:177 1.8 
46 *3:177 *205:ZN 4.5 
47 *3:177 *205:I 5.22 
48 *3:173 *223:ZN 4.5 
49 *3:171 *3:197 1.8 
50 *3:197 *3:201 1.8 
51 *3:201 *203:ZN 4.5 
52 *3:201 *203:I 5.04 
53 *3:197 *229:ZN 4.5 
54 *3:34 *186:I 4.5 
55 *3:33 *217:ZN 4.5 
56 *3:29 *215:ZN 10.35 
57 *3:26 *211:ZN 4.5 
58 *3:25 *231:ZN 4.5 
59 *3:25 *230:I 6.21 
60 *3:11 *233:ZN 4.5 
61 *3:10 *232:I 4.95 
62 *3:6 *3:259 5.85 
63 *3:259 *3:262 6.21 
64 *3:262 *3:264 4.5 
65 *3:264 *227:ZN 4.5 
66 *3:264 *3:269 1.71 
67 *3:269 *228:I 5.31 
68 *3:269 *3:277 0.27 
69 *3:277 *199:ZN 4.5 
70 *3:277 *199:I 4.77 
71 *3:262 *219:ZN 11.61 
72 *3:259 *226:I 4.77 
*END

*D_NET *4 0.0211392
*CONN
*P pload I
*I *189:ZN O *D gf180mcu_fd_sc_mcu7t5v0__inv_1
*I *173:ZN O *D gf180mcu_fd_sc_mcu7t5v0__inv_1
*I *171:ZN O *D gf180mcu_fd_sc_mcu7t5v0__inv_1
*I *183:ZN O *D gf180mcu_fd_sc_mcu7t5v0__inv_1
*I *167:ZN O *D gf180mcu_fd_sc_mcu7t5v0__inv_1
*I *219:I I *D gf180mcu_fd_sc_mcu7t5v0__inv_1
*I *169:ZN O *D gf180mcu_fd_sc_mcu7t5v0__inv_1
*I *167:I I *D gf180mcu_fd_sc_mcu7t5v0__inv_1
*I *179:ZN O *D gf180mcu_fd_sc_mcu7t5v0__inv_1
*I *187:ZN O *D gf180mcu_fd_sc_mcu7t5v0__inv_1
*I *185:ZN O *D gf180mcu_fd_sc_mcu7t5v0__inv_1
*I *175:ZN O *D gf180mcu_fd_sc_mcu7t5v0__inv_1
*I *181:ZN O *D gf180mcu_fd_sc_mcu7t5v0__inv_1
*I *213:I I *D gf180mcu_fd_sc_mcu7t5v0__inv_1
*I *225:I I *D gf180mcu_fd_sc_mcu7t5v0__inv_1
*I *207:I I *D gf180mcu_fd_sc_mcu7t5v0__inv_1
*I *211:I I *D gf180mcu_fd_sc_mcu7t5v0__inv_1
*I *215:I I *D gf180mcu_fd_sc_mcu7t5v0__inv_1
*I *217:I I *D gf180mcu_fd_sc_mcu7t5v0__inv_1
*I *223:I I *D gf180mcu_fd_sc_mcu7t5v0__inv_1
*I *221:I I *D gf180mcu_fd_sc_mcu7t5v0__inv_1
*I *193:ZN O *D gf180mcu_fd_sc_mcu7t5v0__inv_1
*I *209:I I *D gf180mcu_fd_sc_mcu7t5v0__inv_1
*I *190:I I *D gf180mcu_fd_sc_mcu7t5v0__inv_1
*I *194:I I *D gf180mcu_fd_sc_mcu7t5v0__inv_1
*I *192:I I *D gf180mcu_fd_sc_mcu7t5v0__inv_1
*I *163:ZN O *D gf180mcu_fd_sc_mcu7t5v0__inv_1
*I *191:ZN O *D gf180mcu_fd_sc_mcu7t5v0__inv_1
*I *165:ZN O *D gf180mcu_fd_sc_mcu7t5v0__inv_1
*I *165:I I *D gf180mcu_fd_sc_mcu7t5v0__inv_1
*I *196:I I *D gf180mcu_fd_sc_mcu7t5v0__inv_1
*I *195:ZN O *D gf180mcu_fd_sc_mcu7t5v0__inv_1
*I *161:ZN O *D gf180mcu_fd_sc_mcu7t5v0__inv_1
*I *161:I I *D gf180mcu_fd_sc_mcu7t5v0__inv_1
*I *163:I I *D gf180mcu_fd_sc_mcu7t5v0__inv_1
*I *188:I I *D gf180mcu_fd_sc_mcu7t5v0__inv_1
*I *177:ZN O *D gf180mcu_fd_sc_mcu7t5v0__inv_1
*I *197:ZN O *D gf180mcu_fd_sc_mcu7t5v0__inv_1
*CAP
1 pload 0.00066888
2 *189:ZN 1.64633e-05
3 *173:ZN 5.65082e-05
4 *171:ZN 0.000144766
5 *183:ZN 0
6 *167:ZN 1.64633e-05
7 *219:I 0.000123807
8 *169:ZN 2.39686e-05
9 *167:I 0
10 *179:ZN 0
11 *187:ZN 0.000129482
12 *185:ZN 0
13 *175:ZN 0
14 *181:ZN 0
15 *213:I 0
16 *225:I 0
17 *207:I 0
18 *211:I 0
19 *215:I 8.31262e-05
20 *217:I 0
21 *223:I 0.000119732
22 *221:I 9.45392e-05
23 *193:ZN 0
24 *209:I 0.000261212
25 *190:I 0
26 *194:I 0
27 *192:I 0
28 *163:ZN 0
29 *191:ZN 0.000151145
30 *165:ZN 2.84321e-05
31 *165:I 1.42787e-05
32 *196:I 0
33 *195:ZN 0.000145569
34 *161:ZN 0
35 *161:I 7.5443e-06
36 *163:I 0
37 *188:I 0
38 *177:ZN 0.000103145
39 *197:ZN 1.2534e-05
40 *4:296 7.29715e-05
41 *4:258 0.000186491
42 *4:252 5.34574e-05
43 *4:251 7.34042e-05
44 *4:242 5.68973e-05
45 *4:228 0.000184198
46 *4:225 8.52958e-05
47 *4:222 0.000250486
48 *4:217 8.98391e-05
49 *4:176 0.000172272
50 *4:174 0.000191668
51 *4:171 0.000175091
52 *4:167 0.000240353
53 *4:166 0.000236742
54 *4:153 0.0004654
55 *4:146 0.000367151
56 *4:142 0.000205003
57 *4:140 0.000226281
58 *4:121 0.000331313
59 *4:101 0.000740817
60 *4:99 8.49218e-05
61 *4:96 0.000178888
62 *4:71 0.000101349
63 *4:66 5.86381e-05
64 *4:64 0.000256396
65 *4:57 0.000123285
66 *4:43 0.00015896
67 *4:35 8.40214e-05
68 *4:29 0.000209098
69 *4:22 0.000127977
70 *4:20 0.000150024
71 *4:9 0.000169101
72 *4:7 3.65707e-05
73 *4:5 0.000170416
74 *164:I pload 0