*SPEF "ieee 1481-1999"
*DESIGN "injector"
*DATE "11:11:11 Fri 11 11, 1111"
*VENDOR "OpenRCX"
*PROGRAM "Parallel Extraction"
*VERSION "1.0"
*DESIGN_FLOW "NAME_SCOPE LOCAL" "PIN_CAP NONE"
*DIVIDER /
*DELIMITER :
*BUS_DELIMITER []
*T_UNIT 1 NS
*C_UNIT 1 PF
*R_UNIT 1 OHM
*L_UNIT 1 HENRY

*NAME_MAP
*1 enable
*2 outn
*3 outp
*4 signal
*5 trim_n[0]
*6 trim_n[1]
*7 trim_n[2]
*8 trim_n[3]
*9 trim_p[0]
*10 trim_p[1]
*11 trim_p[2]
*12 trim_p[3]
*15 _00_
*16 _01_
*17 _02_
*18 _03_
*19 _04_
*20 _05_
*21 _06_
*22 _07_
*23 _08_
*24 _09_
*25 _10_
*26 _11_
*27 _12_
*28 _13_
*29 _14_
*30 _15_
*31 _16_
*32 _17_
*33 _18_
*34 _19_
*35 _20_
*36 _21_
*37 _22_
*38 _23_
*39 _24_
*40 _25_
*41 _26_
*42 _27_
*43 _28_
*44 signal_n
*45 FILLER_0_104
*46 FILLER_0_107
*47 FILLER_0_112
*48 FILLER_0_118
*49 FILLER_0_139
*50 FILLER_0_142
*51 FILLER_0_147
*52 FILLER_0_151
*53 FILLER_0_2
*54 FILLER_0_28
*55 FILLER_0_34
*56 FILLER_0_37
*57 FILLER_0_39
*58 FILLER_0_4
*59 FILLER_0_44
*60 FILLER_0_50
*61 FILLER_0_69
*62 FILLER_0_72
*63 FILLER_0_74
*64 FILLER_0_79
*65 FILLER_0_85
*66 FILLER_0_9
*67 FILLER_1_10
*68 FILLER_1_112
*69 FILLER_1_118
*70 FILLER_1_124
*71 FILLER_1_130
*72 FILLER_1_136
*73 FILLER_1_140
*74 FILLER_1_144
*75 FILLER_1_149
*76 FILLER_1_151
*77 FILLER_1_2
*78 FILLER_1_28
*79 FILLER_1_32
*80 FILLER_1_37
*81 FILLER_1_43
*82 FILLER_1_49
*83 FILLER_1_68
*84 FILLER_1_70
*85 FILLER_1_73
*86 FILLER_1_81
*87 FILLER_1_87
*88 FILLER_1_93
*89 FILLER_2_101
*90 FILLER_2_105
*91 FILLER_2_108
*92 FILLER_2_113
*93 FILLER_2_119
*94 FILLER_2_125
*95 FILLER_2_131
*96 FILLER_2_133
*97 FILLER_2_151
*98 FILLER_2_18
*99 FILLER_2_2
*100 FILLER_2_22
*101 FILLER_2_28
*102 FILLER_2_34
*103 FILLER_2_37
*104 FILLER_2_41
*105 FILLER_2_47
*106 FILLER_2_53
*107 FILLER_2_59
*108 FILLER_2_65
*109 FILLER_2_71
*110 FILLER_2_77
*111 FILLER_2_83
*112 FILLER_2_89
*113 FILLER_2_95
*114 FILLER_3_101
*115 FILLER_3_107
*116 FILLER_3_11
*117 FILLER_3_113
*118 FILLER_3_119
*119 FILLER_3_125
*120 FILLER_3_131
*121 FILLER_3_137
*122 FILLER_3_141
*123 FILLER_3_144
*124 FILLER_3_149
*125 FILLER_3_151
*126 FILLER_3_17
*127 FILLER_3_2
*128 FILLER_3_33
*129 FILLER_3_35
*130 FILLER_3_40
*131 FILLER_3_46
*132 FILLER_3_52
*133 FILLER_3_58
*134 FILLER_3_64
*135 FILLER_3_70
*136 FILLER_3_73
*137 FILLER_3_77
*138 FILLER_3_83
*139 FILLER_3_89
*140 FILLER_3_95
*141 FILLER_4_100
*142 FILLER_4_104
*143 FILLER_4_108
*144 FILLER_4_113
*145 FILLER_4_119
*146 FILLER_4_125
*147 FILLER_4_131
*148 FILLER_4_137
*149 FILLER_4_14
*150 FILLER_4_143
*151 FILLER_4_149
*152 FILLER_4_151
*153 FILLER_4_2
*154 FILLER_4_22
*155 FILLER_4_30
*156 FILLER_4_34
*157 FILLER_4_37
*158 FILLER_4_45
*159 FILLER_4_47
*160 FILLER_4_52
*161 FILLER_4_58
*162 FILLER_4_64
*163 FILLER_4_70
*164 FILLER_4_76
*165 FILLER_4_82
*166 FILLER_4_88
*167 FILLER_4_94
*168 FILLER_5_112
*169 FILLER_5_133
*170 FILLER_5_139
*171 FILLER_5_141
*172 FILLER_5_144
*173 FILLER_5_149
*174 FILLER_5_151
*175 FILLER_5_2
*176 FILLER_5_26
*177 FILLER_5_32
*178 FILLER_5_48
*179 FILLER_5_69
*180 FILLER_5_7
*181 FILLER_5_73
*182 FILLER_5_81
*183 FILLER_5_87
*184 FILLER_5_93
*185 FILLER_6_104
*186 FILLER_6_107
*187 FILLER_6_112
*188 FILLER_6_114
*189 FILLER_6_132
*190 FILLER_6_138
*191 FILLER_6_142
*192 FILLER_6_147
*193 FILLER_6_151
*194 FILLER_6_2
*195 FILLER_6_26
*196 FILLER_6_34
*197 FILLER_6_37
*198 FILLER_6_45
*199 FILLER_6_50
*200 FILLER_6_69
*201 FILLER_6_7
*202 FILLER_6_72
*203 FILLER_6_74
*204 FILLER_6_79
*205 FILLER_6_85
*206 PHY_0
*207 PHY_1
*208 PHY_10
*209 PHY_11
*210 PHY_12
*211 PHY_13
*212 PHY_2
*213 PHY_3
*214 PHY_4
*215 PHY_5
*216 PHY_6
*217 PHY_7
*218 PHY_8
*219 PHY_9
*220 TAP_14
*221 TAP_15
*222 TAP_16
*223 TAP_17
*224 TAP_18
*225 TAP_19
*226 TAP_20
*227 TAP_21
*228 TAP_22
*229 TAP_23
*230 TAP_24
*231 TAP_25
*232 TAP_26
*233 TAP_27
*234 TAP_28
*235 TAP_29
*236 TAP_30
*237 TAP_31
*238 _29_
*239 _30_
*240 _31_
*241 _32_
*242 _33_
*243 _34_
*244 _35_
*245 _36_
*246 _37_
*247 _38_
*248 _39_
*249 _40_
*250 _41_
*251 _42_
*252 _43_
*253 _44_
*254 _45_
*255 _46_
*256 _47_
*257 _48_
*258 _49_
*259 _50_
*260 _51_
*261 _52_
*262 _53_
*263 _54_
*264 _55_
*265 _56_
*266 _57_
*267 gen_PD\[0\]\.pdn
*268 gen_PD\[0\]\.pdp
*269 gen_PD\[1\]\.pdn
*270 gen_PD\[1\]\.pdp
*271 gen_PD\[2\]\.pdn
*272 gen_PD\[2\]\.pdp
*273 gen_PD\[3\]\.pdn
*274 gen_PD\[3\]\.pdp
*275 gen_PD\[4\]\.pdn
*276 gen_PD\[4\]\.pdp
*277 gen_PD\[5\]\.pdn
*278 gen_PD\[5\]\.pdp
*279 gen_PD\[6\]\.pdn
*280 gen_PD\[6\]\.pdp
*281 gen_PD\[7\]\.pdn
*282 gen_PD\[7\]\.pdp
*283 gen_PU\[0\]\.pun
*284 gen_PU\[0\]\.pup
*285 gen_PU\[10\]\.pun
*286 gen_PU\[10\]\.pup
*287 gen_PU\[11\]\.pun
*288 gen_PU\[11\]\.pup
*289 gen_PU\[12\]\.pun
*290 gen_PU\[12\]\.pup
*291 gen_PU\[13\]\.pun
*292 gen_PU\[13\]\.pup
*293 gen_PU\[14\]\.pun
*294 gen_PU\[14\]\.pup
*295 gen_PU\[15\]\.pun
*296 gen_PU\[15\]\.pup
*297 gen_PU\[16\]\.pun
*298 gen_PU\[16\]\.pup
*299 gen_PU\[17\]\.pun
*300 gen_PU\[17\]\.pup
*301 gen_PU\[18\]\.pun
*302 gen_PU\[18\]\.pup
*303 gen_PU\[19\]\.pun
*304 gen_PU\[19\]\.pup
*305 gen_PU\[1\]\.pun
*306 gen_PU\[1\]\.pup
*307 gen_PU\[2\]\.pun
*308 gen_PU\[2\]\.pup
*309 gen_PU\[3\]\.pun
*310 gen_PU\[3\]\.pup
*311 gen_PU\[4\]\.pun
*312 gen_PU\[4\]\.pup
*313 gen_PU\[5\]\.pun
*314 gen_PU\[5\]\.pup
*315 gen_PU\[6\]\.pun
*316 gen_PU\[6\]\.pup
*317 gen_PU\[7\]\.pun
*318 gen_PU\[7\]\.pup
*319 gen_PU\[8\]\.pun
*320 gen_PU\[8\]\.pup
*321 gen_PU\[9\]\.pun
*322 gen_PU\[9\]\.pup
*323 gen_TRIM\[0\]\.ntrimn
*324 gen_TRIM\[0\]\.ntrimp
*325 gen_TRIM\[0\]\.ptrimn
*326 gen_TRIM\[0\]\.ptrimp
*327 gen_TRIM\[1\]\.ntrimn
*328 gen_TRIM\[1\]\.ntrimp
*329 gen_TRIM\[1\]\.ptrimn
*330 gen_TRIM\[1\]\.ptrimp
*331 gen_TRIM\[2\]\.ntrimn
*332 gen_TRIM\[2\]\.ntrimp
*333 gen_TRIM\[2\]\.ptrimn
*334 gen_TRIM\[2\]\.ptrimp
*335 gen_TRIM\[3\]\.ntrimn
*336 gen_TRIM\[3\]\.ntrimp
*337 gen_TRIM\[3\]\.ptrimn
*338 gen_TRIM\[3\]\.ptrimp
*339 nsijn
*340 psijp
*341 siginv

*PORTS
enable I
outn I
outp I
signal I
trim_n[0] I
trim_n[1] I
trim_n[2] I
trim_n[3] I
trim_p[0] I
trim_p[1] I
trim_p[2] I
trim_p[3] I

*D_NET *1 0.00224458
*CONN
*P enable I
*I *241:A1 I *D gf180mcu_fd_sc_mcu7t5v0__and2_1
*I *238:I I *D gf180mcu_fd_sc_mcu7t5v0__inv_1
*CAP
1 enable 0.00057993
2 *241:A1 0.000144977
3 *238:I 0.000245737
4 *1:8 0.000970643
5 *238:I *241:A2 0
6 *238:I *242:I 0
7 *238:I *323:ZN 0.000266473
8 *1:8 *323:EN 0
9 *1:8 *324:I 3.68254e-05
10 *1:8 *5:9 0
*RES
1 enable *1:8 9.675 
2 *1:8 *238:I 16.92 
3 *1:8 *241:A1 5.85 
*END

*D_NET *2 0.0487233
*CONN
*P outn I
*I *325:ZN O *D gf180mcu_fd_sc_mcu7t5v0__invz_1
*I *329:ZN O *D gf180mcu_fd_sc_mcu7t5v0__invz_1
*I *275:ZN O *D gf180mcu_fd_sc_mcu7t5v0__inv_1
*I *281:ZN O *D gf180mcu_fd_sc_mcu7t5v0__inv_1
*I *267:ZN O *D gf180mcu_fd_sc_mcu7t5v0__inv_1
*I *335:ZN O *D gf180mcu_fd_sc_mcu7t5v0__invz_1
*I *279:ZN O *D gf180mcu_fd_sc_mcu7t5v0__inv_1
*I *291:ZN O *D gf180mcu_fd_sc_mcu7t5v0__inv_1
*I *317:ZN O *D gf180mcu_fd_sc_mcu7t5v0__inv_1
*I *309:ZN O *D gf180mcu_fd_sc_mcu7t5v0__inv_1
*I *337:ZN O *D gf180mcu_fd_sc_mcu7t5v0__invz_1
*I *303:ZN O *D gf180mcu_fd_sc_mcu7t5v0__inv_1
*I *319:ZN O *D gf180mcu_fd_sc_mcu7t5v0__inv_1
*I *297:ZN O *D gf180mcu_fd_sc_mcu7t5v0__inv_1
*I *315:ZN O *D gf180mcu_fd_sc_mcu7t5v0__inv_1
*I *331:ZN O *D gf180mcu_fd_sc_mcu7t5v0__invz_1
*I *333:ZN O *D gf180mcu_fd_sc_mcu7t5v0__invz_1
*I *289:ZN O *D gf180mcu_fd_sc_mcu7t5v0__inv_1
*I *299:ZN O *D gf180mcu_fd_sc_mcu7t5v0__inv_1
*I *305:ZN O *D gf180mcu_fd_sc_mcu7t5v0__inv_1
*I *287:ZN O *D gf180mcu_fd_sc_mcu7t5v0__inv_1
*I *293:ZN O *D gf180mcu_fd_sc_mcu7t5v0__inv_1
*I *321:ZN O *D gf180mcu_fd_sc_mcu7t5v0__inv_1
*I *283:ZN O *D gf180mcu_fd_sc_mcu7t5v0__inv_1
*I *285:ZN O *D gf180mcu_fd_sc_mcu7t5v0__inv_1
*I *313:ZN O *D gf180mcu_fd_sc_mcu7t5v0__inv_1
*I *301:ZN O *D gf180mcu_fd_sc_mcu7t5v0__inv_1
*I *295:ZN O *D gf180mcu_fd_sc_mcu7t5v0__inv_1
*I *307:ZN O *D gf180mcu_fd_sc_mcu7t5v0__inv_1
*I *311:ZN O *D gf180mcu_fd_sc_mcu7t5v0__inv_1
*I *271:ZN O *D gf180mcu_fd_sc_mcu7t5v0__inv_1
*I *269:ZN O *D gf180mcu_fd_sc_mcu7t5v0__inv_1
*I *327:ZN O *D gf180mcu_fd_sc_mcu7t5v0__invz_1
*I *273:ZN O *D gf180mcu_fd_sc_mcu7t5v0__inv_1
*I *277:ZN O *D gf180mcu_fd_sc_mcu7t5v0__inv_1
*I *323:ZN O *D gf180mcu_fd_sc_mcu7t5v0__invz_1
*I *339:ZN O *D gf180mcu_fd_sc_mcu7t5v0__inv_1
*CAP
1 outn 0.000297235
2 *325:ZN 9.58325e-05
3 *329:ZN 0.000200384
4 *275:ZN 0
5 *281:ZN 0.000220021
6 *267:ZN 0
7 *335:ZN 0.000244474
8 *279:ZN 0.000118783
9 *291:ZN 0
10 *317:ZN 0.000126963
11 *309:ZN 0.000175377
12 *337:ZN 0
13 *303:ZN 0
14 *319:ZN 0
15 *297:ZN 9.01213e-05
16 *315:ZN 0
17 *331:ZN 9.27585e-05
18 *333:ZN 0.000236081
19 *289:ZN 0
20 *299:ZN 0
21 *305:ZN 0.000117844
22 *287:ZN 2.53858e-05
23 *293:ZN 0
24 *321:ZN 0
25 *283:ZN 4.55402e-05
26 *285:ZN 4.63185e-05
27 *313:ZN 0
28 *301:ZN 3.01519e-05
29 *295:ZN 3.11295e-05
30 *307:ZN 0
31 *311:ZN 0
32 *271:ZN 0
33 *269:ZN 0
34 *327:ZN 0.000182454
35 *273:ZN 0
36 *277:ZN 0
37 *323:ZN 0.000214024
38 *339:ZN 7.62921e-05
39 *2:310 0.000341579
40 *2:305 0.000524621
41 *2:287 0.000545869
42 *2:272 0.000146529
43 *2:266 0.000248834
44 *2:251 0.000476987
45 *2:240 0.000369156
46 *2:232 0.000262149
47 *2:227 0.000340481
48 *2:220 6.85199e-05
49 *2:208 0.000162732
50 *2:203 0.000138997
51 *2:194 0.000137951
52 *2:159 0.000201596
53 *2:154 8.36967e-05
54 *2:150 0.000130885
55 *2:147 0.000425267
56 *2:139 0.000154224
57 *2:134 0.000121273
58 *2:123 0.000133773
59 *2:114 0.000121328
60 *2:107 6.53337e-05
61 *2:98 0.000106736
62 *2:87 3.11295e-05
63 *2:85 8.08387e-05
64 *2:78 9.27862e-05
65 *2:75 0.000249525
66 *2:68 0.00045183
67 *2:59 8.61987e-05
68 *2:43 0.000305823
69 *2:38 0.000204035
70 *2:31 9.90167e-05
71 *2:24 0.000494858
72 *2:11 0.000837136
73 *2:8 0.00035188
74 outn *12:10 5.52382e-05
75 *279:ZN *316:ZN 0.00014321
76 *279:ZN *12:10 3.45239e-05
77 *281:ZN outp 9.02735e-05
78 *281:ZN *281:I 0
79 *281:ZN *282:I 0.000153858
80 *281:ZN *336:EN 0.00124101
81 *281:ZN *3:240 8.95063e-06
82 *283:ZN *285:I 8.18344e-05
83 *283:ZN *300:I 2.68519e-05
84 *283:ZN *331:I 2.07143e-05
85 *283:ZN *332:ZN 2.76191e-05
86 *283:ZN *3:113 0.000184127
87 *285:ZN *285:I 0.000225045
88 *285:ZN *301:I 9.8457e-05
89 *285:ZN *15:152 2.68519e-05
90 *285:ZN *15:197 4.09172e-05
91 *287:ZN *15:94 3.06879e-06
92 *295:ZN *278:I 0.000184127
93 *295:ZN *15:100 0.000552382
94 *297:ZN *268:I 0
95 *297:ZN *290:I 0.000306879
96 *297:ZN *319:I 2.76191e-05
97 *297:ZN *320:ZN 2.14815e-05
98 *297:ZN *15:252 0.000184127
99 *297:ZN *15:258 0.000552382
100 *301:ZN *278:I 0.000797884
101 *301:ZN *301:I 0.000225045
102 *301:ZN *15:152 4.09172e-05
103 *305:ZN *287:I 8.18344e-05
104 *305:ZN *305:I 0.000184127
105 *305:ZN *15:124 4.47532e-05
106 *305:ZN *15:132 8.95063e-05
107 *309:ZN *337:EN 0.000920636
108 *309:ZN *12:10 0.000186509
109 *309:ZN *15:303 0.000204586
110 *309:ZN *15:330 8.9762e-05
111 *317:ZN *317:I 2.04586e-05
112 *317:ZN *12:10 9.20636e-06
113 *317:ZN *15:330 0.000552162
114 *323:ZN *324:ZN 0.000416771
115 *325:ZN *326:EN 0
116 *325:ZN *326:ZN 0.000306879
117 *327:ZN *269:I 0.0005676
118 *327:ZN *328:ZN 1.38095e-05
119 *329:ZN *328:ZN 0.000265962
120 *329:ZN *3:46 6.21429e-05
121 *329:ZN *3:52 0.000163669
122 *329:ZN *15:62 0
123 *331:ZN *282:I 3.68254e-05
124 *331:ZN *300:I 6.90477e-06
125 *331:ZN *332:ZN 0.000116358
126 *331:ZN *3:133 6.13758e-05
127 *333:ZN *288:ZN 4.60318e-05
128 *333:ZN *289:I 0.000184127
129 *333:ZN *333:EN 0
130 *333:ZN *333:I 8.9762e-05
131 *333:ZN *334:EN 0.000159533
132 *333:ZN *3:137 9.66668e-05
133 *333:ZN *15:179 2.76191e-05
134 *335:ZN *272:I 1.22751e-05
135 *335:ZN *336:EN 7.16051e-05
136 *335:ZN *336:I 0
137 *335:ZN *3:189 6.90477e-06
138 *2:8 *339:I 0
139 *2:8 *341:I 0.000476634
140 *2:8 *3:8 0.00051808
141 *2:11 *240:I 0
142 *2:11 *241:A2 0
143 *2:11 *242:I 6.26544e-05
144 *2:11 *324:ZN 0.000145
145 *2:11 *326:EN 1.53439e-05
146 *2:11 *326:ZN 0.000102293
147 *2:11 *15:5 0.000920636
148 *2:11 *15:18 0.000552382
149 *2:24 *242:I 0.000186509
150 *2:24 *279:I 0
151 *2:24 *336:I 0.000683868
152 *2:31 *279:I 0
153 *2:31 *336:I 0.000746038
154 *2:31 *15:39 9.32547e-06
155 *2:38 *336:I 0.000621698
156 *2:38 *15:39 3.41934e-05
157 *2:43 *271:I 0.000675133
158 *2:43 *273:I 9.8457e-05
159 *2:43 *328:ZN 0
160 *2:59 *336:I 0.000248679
161 *2:59 *15:39 9.32547e-06
162 *2:59 *15:46 6.21698e-06
163 *2:68 *336:I 0.000497358
164 *2:68 *15:46 2.79764e-05
165 *2:75 *270:I 0.000186509
166 *2:75 *271:I 3.45239e-05
167 *2:75 *275:I 6.13757e-05
168 *2:75 *328:ZN 0.000306879
169 *2:75 *336:I 0.00118123
170 *2:78 *270:I 0.000808207
171 *2:78 *281:I 0
172 *2:78 *311:I 0.000186509
173 *2:85 *267:I 0
174 *2:85 *270:I 0.000808207
175 *2:85 *311:I 0.000621698
176 *2:98 *267:I 0
177 *2:98 *270:I 0.000435189
178 *2:107 *267:I 0
179 *2:107 *270:I 0.000435189
180 *2:114 *267:I 0
181 *2:114 *270:I 0.000435189
182 *2:123 *267:I 0
183 *2:123 *270:I 0.000559528
184 *2:123 *3:113 0.000186509
185 *2:134 *270:I 0.000808096
186 *2:134 *3:113 0.000621587
187 *2:134 *3:130 0.000186509
188 *2:139 *300:I 0.000163669
189 *2:139 *3:133 4.83334e-05
190 *2:139 *3:137 1.22751e-05
191 *2:147 *289:I 0.000190996
192 *2:147 *300:I 0.000306879
193 *2:147 *3:137 0.000125309
194 *2:150 *278:I 9.0648e-05
195 *2:150 *279:I 0.000518044
196 *2:150 *3:82 2.48679e-05
197 *2:150 *3:107 0.000161641
198 *2:154 *279:I 0.000269402
199 *2:154 *3:82 0.000161641
200 *2:159 *287:I 0.00024543
201 *2:159 *15:98 0.000184127
202 *2:159 *15:120 1.38095e-05
203 *2:159 *15:124 0.000116358
204 *2:194 *270:I 0.000435189
205 *2:194 *3:130 0.000373019
206 *2:203 *270:I 0.00118123
207 *2:203 *3:130 0.000248679
208 *2:203 *3:155 0.000808207
209 *2:203 *3:173 0.000186509
210 *2:208 *290:I 0.000163669
211 *2:208 *319:I 8.05557e-05
212 *2:208 *15:266 0
213 *2:220 *270:I 0.000683757
214 *2:220 *3:173 0.000621587
215 *2:227 *267:I 0
216 *2:227 *270:I 0.000559528
217 *2:227 *282:I 3.62657e-05
218 *2:227 *3:173 0.000621698
219 *2:232 *268:I 6.13757e-05
220 *2:232 *3:189 1.22751e-05
221 *2:240 *268:I 4.47532e-05
222 *2:240 *276:I 2.68519e-05
223 *2:240 *303:I 0.000163669
224 *2:240 *309:I 2.68519e-05
225 *2:240 *338:ZN 0.00104339
226 *2:240 *3:189 6.21429e-05
227 *2:240 *3:197 4.14286e-05
228 *2:240 *15:303 8.95063e-05
229 *2:251 *337:EN 9.66668e-05
230 *2:251 *338:I 0
231 *2:251 *338:ZN 0.00085926
232 *2:251 *15:300 0
233 *2:251 *15:303 2.68519e-05
234 *2:266 *12:10 0.000227918
235 *2:272 *12:10 0.000186509
236 *2:287 *316:I 4.97357e-05
237 *2:287 *12:10 0.000207232
238 *2:305 *267:I 0
239 *2:305 *282:I 0.00022666
240 *2:310 outp 0
241 *2:310 *336:EN 0.000110432
242 *2:310 *336:I 1.91799e-05
243 *2:310 *3:189 2.76191e-05
244 *238:I *323:ZN 0.000266473
*RES
1 *339:ZN *2:8 15.75 
2 *2:8 *2:11 3.24 
3 *2:11 *323:ZN 7.65 
4 *2:11 *2:24 9.45 
5 *2:24 *277:ZN 9 
6 *2:24 *2:31 1.17 
7 *2:31 *273:ZN 9 
8 *2:31 *2:38 0.99 
9 *2:38 *2:43 6.3 
10 *2:43 *327:ZN 6.39 
11 *2:43 *269:ZN 4.5 
12 *2:38 *2:59 0.45 
13 *2:59 *271:ZN 9 
14 *2:59 *2:68 5.31 
15 *2:68 *2:75 11.97 
16 *2:75 *2:78 5.67 
17 *2:78 *311:ZN 9 
18 *2:78 *2:85 1.17 
19 *2:85 *2:87 4.5 
20 *2:87 *307:ZN 4.5 
21 *2:87 *295:ZN 5.31 
22 *2:85 *2:98 0.63 
23 *2:98 *301:ZN 10.17 
24 *2:98 *2:107 0.63 
25 *2:107 *313:ZN 9 
26 *2:107 *2:114 0.63 
27 *2:114 *285:ZN 10.17 
28 *2:114 *2:123 0.81 
29 *2:123 *283:ZN 9.9 
30 *2:123 *2:134 1.17 
31 *2:134 *2:139 5.58 
32 *2:139 *321:ZN 4.5 
33 *2:139 *2:147 1.62 
34 *2:147 *2:150 6.75 
35 *2:150 *2:154 5.67 
36 *2:154 *293:ZN 4.5 
37 *2:154 *2:159 1.35 
38 *2:159 *287:ZN 4.77 
39 *2:159 *305:ZN 6.48 
40 *2:150 *299:ZN 9 
41 *2:147 *289:ZN 4.5 
42 *2:147 *333:ZN 8.01 
43 *2:134 *2:194 0.63 
44 *2:194 *331:ZN 10.35 
45 *2:194 *2:203 1.71 
46 *2:203 *2:208 5.58 
47 *2:208 *315:ZN 4.5 
48 *2:208 *297:ZN 5.85 
49 *2:203 *2:220 0.99 
50 *2:220 *319:ZN 9 
51 *2:220 *2:227 1.17 
52 *2:227 *2:232 5.4 
53 *2:232 *303:ZN 4.5 
54 *2:232 *2:240 3.06 
55 *2:240 *337:ZN 4.5 
56 *2:240 *2:251 7.47 
57 *2:251 *309:ZN 12.24 
58 *2:251 *2:266 1.53 
59 *2:266 *2:272 5.04 
60 *2:272 *317:ZN 5.94 
61 *2:272 *291:ZN 4.5 
62 *2:266 *2:287 6.39 
63 *2:287 *279:ZN 5.85 
64 *2:287 outn 7.695 
65 *2:227 *2:305 2.52 
66 *2:305 *2:310 5.76 
67 *2:310 *335:ZN 6.93 
68 *2:310 *267:ZN 4.5 
69 *2:305 *281:ZN 12.42 
70 *2:75 *275:ZN 4.5 
71 *2:68 *329:ZN 6.93 
72 *2:8 *325:ZN 5.31 
*END

*D_NET *3 0.0448842
*CONN
*P outp I
*I *330:ZN O *D gf180mcu_fd_sc_mcu7t5v0__invz_1
*I *304:ZN O *D gf180mcu_fd_sc_mcu7t5v0__inv_1
*I *322:ZN O *D gf180mcu_fd_sc_mcu7t5v0__inv_1
*I *284:ZN O *D gf180mcu_fd_sc_mcu7t5v0__inv_1
*I *294:ZN O *D gf180mcu_fd_sc_mcu7t5v0__inv_1
*I *288:ZN O *D gf180mcu_fd_sc_mcu7t5v0__inv_1
*I *292:ZN O *D gf180mcu_fd_sc_mcu7t5v0__inv_1
*I *308:ZN O *D gf180mcu_fd_sc_mcu7t5v0__inv_1
*I *276:ZN O *D gf180mcu_fd_sc_mcu7t5v0__inv_1
*I *278:ZN O *D gf180mcu_fd_sc_mcu7t5v0__inv_1
*I *316:ZN O *D gf180mcu_fd_sc_mcu7t5v0__inv_1
*I *336:ZN O *D gf180mcu_fd_sc_mcu7t5v0__invz_1
*I *274:ZN O *D gf180mcu_fd_sc_mcu7t5v0__inv_1
*I *268:ZN O *D gf180mcu_fd_sc_mcu7t5v0__inv_1
*I *338:ZN O *D gf180mcu_fd_sc_mcu7t5v0__invz_1
*I *302:ZN O *D gf180mcu_fd_sc_mcu7t5v0__inv_1
*I *306:ZN O *D gf180mcu_fd_sc_mcu7t5v0__inv_1
*I *320:ZN O *D gf180mcu_fd_sc_mcu7t5v0__inv_1
*I *280:ZN O *D gf180mcu_fd_sc_mcu7t5v0__inv_1
*I *272:ZN O *D gf180mcu_fd_sc_mcu7t5v0__inv_1
*I *270:ZN O *D gf180mcu_fd_sc_mcu7t5v0__inv_1
*I *290:ZN O *D gf180mcu_fd_sc_mcu7t5v0__inv_1
*I *282:ZN O *D gf180mcu_fd_sc_mcu7t5v0__inv_1
*I *318:ZN O *D gf180mcu_fd_sc_mcu7t5v0__inv_1
*I *314:ZN O *D gf180mcu_fd_sc_mcu7t5v0__inv_1
*I *334:ZN O *D gf180mcu_fd_sc_mcu7t5v0__invz_1
*I *300:ZN O *D gf180mcu_fd_sc_mcu7t5v0__inv_1
*I *332:ZN O *D gf180mcu_fd_sc_mcu7t5v0__invz_1
*I *296:ZN O *D gf180mcu_fd_sc_mcu7t5v0__inv_1
*I *312:ZN O *D gf180mcu_fd_sc_mcu7t5v0__inv_1
*I *298:ZN O *D gf180mcu_fd_sc_mcu7t5v0__inv_1
*I *310:ZN O *D gf180mcu_fd_sc_mcu7t5v0__inv_1
*I *328:ZN O *D gf180mcu_fd_sc_mcu7t5v0__invz_1
*I *286:ZN O *D gf180mcu_fd_sc_mcu7t5v0__inv_1
*I *324:ZN O *D gf180mcu_fd_sc_mcu7t5v0__invz_1
*I *326:ZN O *D gf180mcu_fd_sc_mcu7t5v0__invz_1
*I *340:ZN O *D gf180mcu_fd_sc_mcu7t5v0__inv_1
*CAP
1 outp 0.000576565
2 *330:ZN 0.000132883
3 *304:ZN 0
4 *322:ZN 0
5 *284:ZN 0
6 *294:ZN 0
7 *288:ZN 9.67814e-05
8 *292:ZN 0
9 *308:ZN 0
10 *276:ZN 0
11 *278:ZN 4.37583e-05
12 *316:ZN 0.000228191
13 *336:ZN 0
14 *274:ZN 2.67812e-05
15 *268:ZN 0
16 *338:ZN 0.000158467
17 *302:ZN 0
18 *306:ZN 0
19 *320:ZN 5.01556e-05
20 *280:ZN 0
21 *272:ZN 0
22 *270:ZN 0
23 *290:ZN 0
24 *282:ZN 0.00027442
25 *318:ZN 0
26 *314:ZN 0.000194079
27 *334:ZN 0
28 *300:ZN 0
29 *332:ZN 0.000260051
30 *296:ZN 0.000113055
31 *312:ZN 0
32 *298:ZN 0
33 *310:ZN 4.25876e-05
34 *328:ZN 0.000370163
35 *286:ZN 0
36 *324:ZN 0.000604408
37 *326:ZN 5.54703e-05
38 *340:ZN 9.78676e-05
39 *3:285 0.000154363
40 *3:255 0.000283898
41 *3:240 0.000778538
42 *3:233 0.000228754
43 *3:231 6.89294e-05
44 *3:224 9.1735e-05
45 *3:213 0.000158467
46 *3:202 8.57846e-05
47 *3:198 6.49955e-05
48 *3:197 0.000132854
49 *3:189 0.000290248
50 *3:181 0.000322217
51 *3:175 0.000137448
52 *3:173 0.000176316
53 *3:157 0.00027442
54 *3:155 0.000194794
55 *3:137 0.000492634
56 *3:133 0.000360936
57 *3:130 0.000167157
58 *3:115 0.000260051
59 *3:113 0.000173081
60 *3:108 0.000162896
61 *3:107 0.000123763
62 *3:91 0.000241967
63 *3:84 0.000128912
64 *3:82 0.000110579
65 *3:73 0.000153044
66 *3:70 5.57422e-05
67 *3:69 7.16532e-05
68 *3:52 0.000450894
69 *3:51 0.000114837
70 *3:46 0.000277021
71 *3:41 0.000501463
72 *3:34 0.000455453
73 *3:19 0.000923508
74 *3:8 0.000185254
75 outp *269:I 0
76 outp *281:I 2.68519e-05
77 outp *336:EN 0.000241667
78 outp *8:9 9.8457e-05
79 *278:ZN *278:I 3.62657e-05
80 *278:ZN *279:I 6.21697e-05
81 *282:ZN *268:I 9.20636e-06
82 *282:ZN *280:I 2.07143e-05
83 *282:ZN *282:I 0.000634216
84 *282:ZN *290:I 6.13757e-05
85 *282:ZN *319:I 6.90477e-06
86 *288:ZN *289:I 1.38095e-05
87 *288:ZN *15:175 0.000184127
88 *288:ZN *15:179 0.000248572
89 *296:ZN *305:I 7.51853e-05
90 *296:ZN *333:I 9.66668e-05
91 *296:ZN *15:124 0.000306879
92 *296:ZN *15:132 0.00085926
93 *296:ZN *15:179 2.76191e-05
94 *310:ZN *15:98 4.83334e-05
95 *314:ZN *314:I 0.000675133
96 *314:ZN *15:266 4.09172e-05
97 *316:ZN *274:I 1.79013e-05
98 *316:ZN *278:I 6.13758e-05
99 *316:ZN *279:I 0.000982012
100 *316:ZN *15:330 0
101 *320:ZN *268:I 8.5926e-05
102 *324:ZN *242:I 0.00042952
103 *324:ZN *323:EN 0
104 *324:ZN *323:I 0.000117381
105 *324:ZN *325:I 7.16051e-05
106 *324:ZN *15:21 2.68519e-05
107 *328:ZN *269:I 0.00128889
108 *328:ZN *270:I 0.00042963
109 *328:ZN *271:I 1.84127e-05
110 *328:ZN *275:I 0
111 *328:ZN *294:I 6.21429e-05
112 *328:ZN *327:EN 0.000116342
113 *330:ZN *329:EN 0
114 *330:ZN *330:I 0
115 *332:ZN *282:I 0
116 *332:ZN *285:I 0
117 *332:ZN *300:I 6.13757e-05
118 *332:ZN *331:EN 0.000688942
119 *332:ZN *331:I 9.89629e-05
120 *332:ZN *7:7 6.13758e-05
121 *338:ZN *303:I 0.000306879
122 *338:ZN *306:I 3.68254e-05
123 *338:ZN *338:I 3.98942e-05
124 *338:ZN *15:315 0.000184127
125 *3:8 *240:I 0.00142991
126 *3:8 *340:I 8.28929e-05
127 *3:8 *341:I 1.81166e-05
128 *3:8 *4:10 0.000184127
129 *3:19 *240:I 0.000435078
130 *3:19 *341:I 5.43823e-05
131 *3:34 *240:I 0.00142991
132 *3:34 *341:I 0.000163195
133 *3:34 *15:35 0.000144545
134 *3:41 *15:35 6.21698e-06
135 *3:46 *286:I 0
136 *3:46 *329:EN 0.000225045
137 *3:46 *15:39 0
138 *3:51 *279:I 0.000269402
139 *3:52 *294:I 2.07143e-05
140 *3:52 *15:62 4.14286e-05
141 *3:69 *336:I 3.73019e-05
142 *3:69 *15:53 0.000683868
143 *3:69 *15:78 0.00012434
144 *3:70 *294:I 0.00042963
145 *3:73 *336:I 0.000161641
146 *3:73 *15:78 9.06641e-05
147 *3:73 *15:87 1.81328e-05
148 *3:82 *278:I 0.000559528
149 *3:82 *279:I 2.09823e-05
150 *3:82 *336:I 0.000136773
151 *3:82 *15:87 8.15977e-05
152 *3:82 *15:115 0.000124339
153 *3:91 *15:120 0.000184127
154 *3:91 *15:124 0.000138095
155 *3:91 *15:175 7.16051e-05
156 *3:91 *15:179 0.000159577
157 *3:107 *278:I 0.000746038
158 *3:108 *289:I 4.47532e-05
159 *3:108 *300:I 2.76191e-05
160 *3:108 *15:175 8.18344e-05
161 *3:108 *15:197 0.000245503
162 *3:113 *267:I 4.04104e-05
163 *3:113 *285:I 6.13757e-05
164 *3:113 *300:I 5.52382e-05
165 *3:113 *15:197 0.000675133
166 *3:130 *267:I 3.73019e-05
167 *3:133 *282:I 9.8457e-05
168 *3:137 *290:I 0
169 *3:137 *15:258 0
170 *3:137 *15:266 0
171 *3:155 *267:I 3.73019e-05
172 *3:173 *267:I 6.83868e-05
173 *3:173 *270:I 0.000245503
174 *3:173 *276:I 6.13757e-05
175 *3:175 *270:I 0.00042963
176 *3:181 *276:I 3.37566e-05
177 *3:189 *268:I 0
178 *3:189 *276:I 1.22751e-05
179 *3:189 *336:I 0.000159577
180 *3:198 *268:I 0.000808207
181 *3:198 *278:I 0.000108797
182 *3:202 *268:I 0.000435189
183 *3:202 *278:I 0.000117863
184 *3:202 *279:I 0.000124339
185 *3:224 *268:I 0.000683868
186 *3:224 *278:I 0.000108797
187 *3:224 *279:I 4.14464e-05
188 *3:231 *278:I 0.00012693
189 *3:231 *279:I 0.000310848
190 *3:240 *274:I 0.000265962
191 *3:240 *278:I 7.16051e-05
192 *3:240 *336:I 0
193 *3:255 *278:I 3.62657e-05
194 *3:255 *279:I 0.000103616
195 *3:285 *289:I 6.26544e-05
196 *3:285 *15:175 0.000109198
197 *279:ZN *316:ZN 0.00014321
198 *281:ZN outp 9.02735e-05
199 *281:ZN *3:240 8.95063e-06
200 *283:ZN *332:ZN 2.76191e-05
201 *283:ZN *3:113 0.000184127
202 *297:ZN *320:ZN 2.14815e-05
203 *323:ZN *324:ZN 0.000416771
204 *325:ZN *326:ZN 0.000306879
205 *327:ZN *328:ZN 1.38095e-05
206 *329:ZN *328:ZN 0.000265962
207 *329:ZN *3:46 6.21429e-05
208 *329:ZN *3:52 0.000163669
209 *331:ZN *332:ZN 0.000116358
210 *331:ZN *3:133 6.13758e-05
211 *333:ZN *288:ZN 4.60318e-05
212 *333:ZN *3:137 9.66668e-05
213 *335:ZN *3:189 6.90477e-06
214 *2:8 *3:8 0.00051808
215 *2:11 *324:ZN 0.000145
216 *2:11 *326:ZN 0.000102293
217 *2:43 *328:ZN 0
218 *2:75 *328:ZN 0.000306879
219 *2:123 *3:113 0.000186509
220 *2:134 *3:113 0.000621587
221 *2:134 *3:130 0.000186509
222 *2:139 *3:133 4.83334e-05
223 *2:139 *3:137 1.22751e-05
224 *2:147 *3:137 0.000125309
225 *2:150 *3:82 2.48679e-05
226 *2:150 *3:107 0.000161641
227 *2:154 *3:82 0.000161641
228 *2:194 *3:130 0.000373019
229 *2:203 *3:130 0.000248679
230 *2:203 *3:155 0.000808207
231 *2:203 *3:173 0.000186509
232 *2:220 *3:173 0.000621587
233 *2:227 *3:173 0.000621698
234 *2:232 *3:189 1.22751e-05
235 *2:240 *338:ZN 0.00104339
236 *2:240 *3:189 6.21429e-05
237 *2:240 *3:197 4.14286e-05
238 *2:251 *338:ZN 0.00085926
239 *2:310 outp 0
240 *2:310 *3:189 2.76191e-05
*RES
1 *340:ZN *3:8 11.7 
2 *3:8 *326:ZN 10.08 
3 *3:8 *3:19 0.63 
4 *3:19 *324:ZN 16.38 
5 *3:19 *3:34 5.13 
6 *3:34 *286:ZN 9 
7 *3:34 *3:41 1.53 
8 *3:41 *3:46 6.66 
9 *3:46 *3:51 10.17 
10 *3:51 *3:52 0.81 
11 *3:52 *328:ZN 9.72 
12 *3:52 *3:69 10.17 
13 *3:69 *3:70 0.63 
14 *3:70 *3:73 5.67 
15 *3:73 *310:ZN 9.63 
16 *3:73 *3:82 2.43 
17 *3:82 *3:84 4.5 
18 *3:84 *298:ZN 4.5 
19 *3:84 *3:91 2.34 
20 *3:91 *312:ZN 4.5 
21 *3:91 *296:ZN 7.02 
22 *3:82 *3:107 5.67 
23 *3:107 *3:108 0.81 
24 *3:108 *3:113 6.66 
25 *3:113 *3:115 4.5 
26 *3:115 *332:ZN 7.83 
27 *3:115 *300:ZN 4.5 
28 *3:113 *3:130 1.17 
29 *3:130 *3:133 5.49 
30 *3:133 *3:137 3.24 
31 *3:137 *334:ZN 4.5 
32 *3:137 *314:ZN 6.84 
33 *3:133 *318:ZN 4.5 
34 *3:130 *3:155 1.17 
35 *3:155 *3:157 4.5 
36 *3:157 *282:ZN 7.92 
37 *3:157 *290:ZN 4.5 
38 *3:155 *3:173 7.02 
39 *3:173 *3:175 0.63 
40 *3:175 *270:ZN 4.5 
41 *3:175 *3:181 1.17 
42 *3:181 *272:ZN 4.5 
43 *3:181 *3:189 2.88 
44 *3:189 *280:ZN 4.5 
45 *3:189 *3:197 5.13 
46 *3:197 *3:198 1.17 
47 *3:198 *3:202 5.67 
48 *3:202 *320:ZN 5.13 
49 *3:202 *306:ZN 4.5 
50 *3:198 *3:213 4.5 
51 *3:213 *302:ZN 4.5 
52 *3:213 *338:ZN 7.29 
53 *3:197 *3:224 1.17 
54 *3:224 *268:ZN 9 
55 *3:224 *3:231 1.35 
56 *3:231 *3:233 4.5 
57 *3:233 *274:ZN 4.77 
58 *3:233 *3:240 2.25 
59 *3:240 outp 11.295 
60 *3:240 *336:ZN 4.5 
61 *3:231 *3:255 0.45 
62 *3:255 *316:ZN 11.97 
63 *3:255 *278:ZN 9.63 
64 *3:173 *276:ZN 4.5 
65 *3:108 *308:ZN 4.5 
66 *3:107 *3:285 0.9 
67 *3:285 *292:ZN 4.5 
68 *3:285 *288:ZN 6.12 
69 *3:70 *294:ZN 4.5 
70 *3:69 *284:ZN 4.5 
71 *3:51 *322:ZN 4.5 
72 *3:46 *304:ZN 4.5 
73 *3:41 *330:ZN 10.26 
*END

*D_NET *4 0.00634257
*CONN
*P signal I
*I *341:I I *D gf180mcu_fd_sc_mcu7t5v0__inv_1
*I *241:A2 I *D gf180mcu_fd_sc_mcu7t5v0__and2_1
*CAP
1 signal 0.000411042
2 *341:I 0.000168196
3 *241:A2 0.000190923
4 *4:10 0.000770161
5 *241:A2 *239:A1 1.22751e-05
6 *241:A2 *240:I 0.000675133
7 *241:A2 *339:I 0.000347796
8 *241:A2 *15:5 0
9 *341:I *239:A1 0.000124339
10 *341:I *239:A2 2.79764e-05
11 *341:I *339:I 0
12 *341:I *15:18 0.00130557
13 *341:I *15:35 0.000683868
14 *4:10 *240:I 0.000675133
15 *4:10 *326:EN 3.58025e-05
16 *4:10 *340:I 0
17 *4:10 *9:5 1.79013e-05
18 *238:I *241:A2 0
19 *2:8 *341:I 0.000476634
20 *2:11 *241:A2 0
21 *3:8 *341:I 1.81166e-05
22 *3:8 *4:10 0.000184127
23 *3:19 *341:I 5.43823e-05
24 *3:34 *341:I 0.000163195
*RES
1 signal *4:10 9.225 
2 *4:10 *241:A2 7.11 
3 *4:10 *341:I 17.91 
*END

*D_NET *5 0.00184684
*CONN
*P trim_n[0] I
*I *323:EN I *D gf180mcu_fd_sc_mcu7t5v0__invz_1
*I *324:EN I *D gf180mcu_fd_sc_mcu7t5v0__invz_1
*CAP
1 trim_n[0] 0.000524403
2 *323:EN 0.000152543
3 *324:EN 0.000236118
4 *5:9 0.000913064
5 *323:EN *324:I 1.38095e-05
6 *5:9 *324:I 6.90477e-06
7 *324:ZN *323:EN 0
8 *1:8 *323:EN 0
9 *1:8 *5:9 0
*RES
1 trim_n[0] *5:9 5.085 
2 *5:9 *324:EN 15.75 
3 *5:9 *323:EN 5.85 
*END

*D_NET *6 0.0033905
*CONN
*P trim_n[1] I
*I *327:EN I *D gf180mcu_fd_sc_mcu7t5v0__invz_1
*I *328:EN I *D gf180mcu_fd_sc_mcu7t5v0__invz_1
*CAP
1 trim_n[1] 0.000528194
2 *327:EN 0.000142316
3 *328:EN 0
4 *6:10 0.000670511
5 *6:10 *328:I 2.04586e-05
6 *6:10 *331:I 0.00143604
7 *6:10 *332:I 0.000476634
8 *328:ZN *327:EN 0.000116342
*RES
1 trim_n[1] *6:10 15.615 
2 *6:10 *328:EN 4.5 
3 *6:10 *327:EN 5.85 
*END

*D_NET *7 0.00416144
*CONN
*P trim_n[2] I
*I *331:EN I *D gf180mcu_fd_sc_mcu7t5v0__invz_1
*I *332:EN I *D gf180mcu_fd_sc_mcu7t5v0__invz_1
*CAP
1 trim_n[2] 0.000500772
2 *331:EN 0.000137547
3 *332:EN 0
4 *7:7 0.000638319
5 *331:EN *267:I 0.00105689
6 *331:EN *281:I 0.00105689
7 *331:EN *282:I 0
8 *331:EN *331:I 0
9 *7:7 *331:I 2.07143e-05
10 *332:ZN *331:EN 0.000688942
11 *332:ZN *7:7 6.13758e-05
*RES
1 trim_n[2] *7:7 4.995 
2 *7:7 *332:EN 4.5 
3 *7:7 *331:EN 16.38 
*END

*D_NET *8 0.00346479
*CONN
*P trim_n[3] I
*I *336:EN I *D gf180mcu_fd_sc_mcu7t5v0__invz_1
*I *335:EN I *D gf180mcu_fd_sc_mcu7t5v0__invz_1
*CAP
1 trim_n[3] 0.000519547
2 *336:EN 0.000308944
3 *335:EN 2.23177e-05
4 *8:9 0.000850808
5 *336:EN *281:I 0
6 outp *336:EN 0.000241667
7 outp *8:9 9.8457e-05
8 *281:ZN *336:EN 0.00124101
9 *335:ZN *336:EN 7.16051e-05
10 *2:310 *336:EN 0.000110432
*RES
1 trim_n[3] *8:9 5.445 
2 *8:9 *335:EN 4.77 
3 *8:9 *336:EN 17.91 
*END

*D_NET *9 0.00145627
*CONN
*P trim_p[0] I
*I *325:EN I *D gf180mcu_fd_sc_mcu7t5v0__invz_1
*I *326:EN I *D gf180mcu_fd_sc_mcu7t5v0__invz_1
*CAP
1 trim_p[0] 0.000502465
2 *325:EN 0
3 *326:EN 0.000123645
4 *9:5 0.00062611
5 *326:EN *240:I 0.000135005
6 *325:ZN *326:EN 0
7 *2:11 *326:EN 1.53439e-05
8 *4:10 *326:EN 3.58025e-05
9 *4:10 *9:5 1.79013e-05
*RES
1 trim_p[0] *9:5 4.905 
2 *9:5 *326:EN 5.85 
3 *9:5 *325:EN 4.5 
*END

*D_NET *10 0.00154973
*CONN
*P trim_p[1] I
*I *330:EN I *D gf180mcu_fd_sc_mcu7t5v0__invz_1
*I *329:EN I *D gf180mcu_fd_sc_mcu7t5v0__invz_1
*CAP
1 trim_p[1] 0.00054052
2 *330:EN 0
3 *329:EN 7.69402e-05
4 *10:9 0.00061746
5 *329:EN *286:I 8.9762e-05
6 *330:ZN *329:EN 0
7 *3:46 *329:EN 0.000225045
*RES
1 trim_p[1] *10:9 5.265 
2 *10:9 *329:EN 5.85 
3 *10:9 *330:EN 4.5 
*END

*D_NET *11 0.00149974
*CONN
*P trim_p[2] I
*I *333:EN I *D gf180mcu_fd_sc_mcu7t5v0__invz_1
*I *334:EN I *D gf180mcu_fd_sc_mcu7t5v0__invz_1
*CAP
1 trim_p[2] 0.00050881
2 *333:EN 4.46354e-05
3 *334:EN 0.000116656
4 *11:5 0.000670101
5 *334:EN *333:I 0
6 *333:ZN *333:EN 0
7 *333:ZN *334:EN 0.000159533
*RES
1 trim_p[2] *11:5 4.905 
2 *11:5 *334:EN 5.85 
3 *11:5 *333:EN 4.95 
*END

*D_NET *12 0.00421357
*CONN
*P trim_p[3] I
*I *338:EN I *D gf180mcu_fd_sc_mcu7t5v0__invz_1
*I *337:EN I *D gf180mcu_fd_sc_mcu7t5v0__invz_1
*CAP
1 trim_p[3] 0.000597003
2 *338:EN 0
3 *337:EN 5.06009e-05
4 *12:10 0.000647603
5 *337:EN *15:303 6.13757e-05
6 *12:10 *316:I 0.000932547
7 *12:10 *15:329 0
8 outn *12:10 5.52382e-05
9 *279:ZN *12:10 3.45239e-05
10 *309:ZN *337:EN 0.000920636
11 *309:ZN *12:10 0.000186509