*SPEF "ieee 1481-1999"
*DESIGN "shiftreg"
*DATE "11:11:11 Fri 11 11, 1111"
*VENDOR "OpenRCX"
*PROGRAM "Parallel Extraction"
*VERSION "1.0"
*DESIGN_FLOW "NAME_SCOPE LOCAL" "PIN_CAP NONE"
*DIVIDER /
*DELIMITER :
*BUS_DELIMITER []
*T_UNIT 1 NS
*C_UNIT 1 PF
*R_UNIT 1 OHM
*L_UNIT 1 HENRY

*NAME_MAP
*1 latch
*2 sclk
*3 sdin
*4 sr_out
*5 tune_s1_series_gy[0]
*6 tune_s1_series_gy[1]
*7 tune_s1_series_gy[2]
*8 tune_s1_series_gy[3]
*9 tune_s1_series_gy[4]
*10 tune_s1_series_gy[5]
*11 tune_s1_series_gygy[0]
*12 tune_s1_series_gygy[1]
*13 tune_s1_series_gygy[2]
*14 tune_s1_series_gygy[3]
*15 tune_s1_series_gygy[4]
*16 tune_s1_series_gygy[5]
*17 tune_s1_shunt[0]
*18 tune_s1_shunt[1]
*19 tune_s1_shunt[2]
*20 tune_s1_shunt[3]
*21 tune_s1_shunt[4]
*22 tune_s1_shunt[5]
*23 tune_s1_shunt[6]
*24 tune_s1_shunt[7]
*25 tune_s1_shunt_gy[0]
*26 tune_s1_shunt_gy[1]
*27 tune_s1_shunt_gy[2]
*28 tune_s1_shunt_gy[3]
*29 tune_s1_shunt_gy[4]
*30 tune_s1_shunt_gy[5]
*31 tune_s1_shunt_gy[6]
*32 tune_s2_series_gy[0]
*33 tune_s2_series_gy[1]
*34 tune_s2_series_gy[2]
*35 tune_s2_series_gy[3]
*36 tune_s2_series_gy[4]
*37 tune_s2_series_gy[5]
*38 tune_s2_series_gy[6]
*39 tune_s2_series_gy[7]
*40 tune_s2_series_gygy[0]
*41 tune_s2_series_gygy[1]
*42 tune_s2_series_gygy[2]
*43 tune_s2_series_gygy[3]
*44 tune_s2_series_gygy[4]
*45 tune_s2_series_gygy[5]
*46 tune_s2_series_gygy[6]
*47 tune_s2_series_gygy[7]
*48 tune_s2_shunt[0]
*49 tune_s2_shunt[10]
*50 tune_s2_shunt[1]
*51 tune_s2_shunt[2]
*52 tune_s2_shunt[3]
*53 tune_s2_shunt[4]
*54 tune_s2_shunt[5]
*55 tune_s2_shunt[6]
*56 tune_s2_shunt[7]
*57 tune_s2_shunt[8]
*58 tune_s2_shunt[9]
*59 tune_s2_shunt_gy[0]
*60 tune_s2_shunt_gy[1]
*61 tune_s2_shunt_gy[2]
*62 tune_s2_shunt_gy[3]
*63 tune_s2_shunt_gy[4]
*66 clknet_0_sclk
*67 clknet_3_0__leaf_sclk
*68 clknet_3_1__leaf_sclk
*69 clknet_3_2__leaf_sclk
*70 clknet_3_3__leaf_sclk
*71 clknet_3_4__leaf_sclk
*72 clknet_3_5__leaf_sclk
*73 clknet_3_6__leaf_sclk
*74 clknet_3_7__leaf_sclk
*75 sr\[0\]
*76 sr\[10\]
*77 sr\[11\]
*78 sr\[12\]
*79 sr\[13\]
*80 sr\[14\]
*81 sr\[15\]
*82 sr\[16\]
*83 sr\[17\]
*84 sr\[18\]
*85 sr\[19\]
*86 sr\[1\]
*87 sr\[20\]
*88 sr\[21\]
*89 sr\[22\]
*90 sr\[23\]
*91 sr\[24\]
*92 sr\[25\]
*93 sr\[26\]
*94 sr\[27\]
*95 sr\[28\]
*96 sr\[29\]
*97 sr\[2\]
*98 sr\[30\]
*99 sr\[31\]
*100 sr\[32\]
*101 sr\[33\]
*102 sr\[34\]
*103 sr\[35\]
*104 sr\[36\]
*105 sr\[37\]
*106 sr\[38\]
*107 sr\[39\]
*108 sr\[3\]
*109 sr\[40\]
*110 sr\[41\]
*111 sr\[42\]
*112 sr\[43\]
*113 sr\[44\]
*114 sr\[45\]
*115 sr\[46\]
*116 sr\[47\]
*117 sr\[48\]
*118 sr\[49\]
*119 sr\[4\]
*120 sr\[50\]
*121 sr\[51\]
*122 sr\[52\]
*123 sr\[53\]
*124 sr\[54\]
*125 sr\[55\]
*126 sr\[56\]
*127 sr\[57\]
*128 sr\[5\]
*129 sr\[6\]
*130 sr\[7\]
*131 sr\[8\]
*132 sr\[9\]
*133 FILLER_0_1012
*134 FILLER_0_1014
*135 FILLER_0_1017
*136 FILLER_0_102
*137 FILLER_0_104
*138 FILLER_0_1047
*139 FILLER_0_1049
*140 FILLER_0_1052
*141 FILLER_0_107
*142 FILLER_0_1082
*143 FILLER_0_1084
*144 FILLER_0_1087
*145 FILLER_0_1117
*146 FILLER_0_1119
*147 FILLER_0_1122
*148 FILLER_0_1152
*149 FILLER_0_1154
*150 FILLER_0_1157
*151 FILLER_0_1187
*152 FILLER_0_1189
*153 FILLER_0_1192
*154 FILLER_0_1222
*155 FILLER_0_1224
*156 FILLER_0_1227
*157 FILLER_0_1257
*158 FILLER_0_1259
*159 FILLER_0_1262
*160 FILLER_0_1292
*161 FILLER_0_1294
*162 FILLER_0_1297
*163 FILLER_0_1329
*164 FILLER_0_1332
*165 FILLER_0_1364
*166 FILLER_0_1367
*167 FILLER_0_139
*168 FILLER_0_1399
*169 FILLER_0_142
*170 FILLER_0_174
*171 FILLER_0_177
*172 FILLER_0_2
*173 FILLER_0_209
*174 FILLER_0_212
*175 FILLER_0_214
*176 FILLER_0_244
*177 FILLER_0_247
*178 FILLER_0_249
*179 FILLER_0_279
*180 FILLER_0_282
*181 FILLER_0_314
*182 FILLER_0_317
*183 FILLER_0_34
*184 FILLER_0_347
*185 FILLER_0_349
*186 FILLER_0_352
*187 FILLER_0_354
*188 FILLER_0_37
*189 FILLER_0_384
*190 FILLER_0_387
*191 FILLER_0_389
*192 FILLER_0_4
*193 FILLER_0_419
*194 FILLER_0_422
*195 FILLER_0_424
*196 FILLER_0_454
*197 FILLER_0_457
*198 FILLER_0_459
*199 FILLER_0_489
*200 FILLER_0_492
*201 FILLER_0_494
*202 FILLER_0_524
*203 FILLER_0_527
*204 FILLER_0_529
*205 FILLER_0_559
*206 FILLER_0_562
*207 FILLER_0_564
*208 FILLER_0_594
*209 FILLER_0_597
*210 FILLER_0_627
*211 FILLER_0_629
*212 FILLER_0_632
*213 FILLER_0_664
*214 FILLER_0_667
*215 FILLER_0_669
*216 FILLER_0_68
*217 FILLER_0_699
*218 FILLER_0_702
*219 FILLER_0_72
*220 FILLER_0_732
*221 FILLER_0_734
*222 FILLER_0_737
*223 FILLER_0_767
*224 FILLER_0_769
*225 FILLER_0_772
*226 FILLER_0_802
*227 FILLER_0_804
*228 FILLER_0_807
*229 FILLER_0_837
*230 FILLER_0_839
*231 FILLER_0_842
*232 FILLER_0_872
*233 FILLER_0_874
*234 FILLER_0_877
*235 FILLER_0_907
*236 FILLER_0_909
*237 FILLER_0_912
*238 FILLER_0_944
*239 FILLER_0_947
*240 FILLER_0_977
*241 FILLER_0_979
*242 FILLER_0_982
*243 FILLER_1_1026
*244 FILLER_1_1057
*245 FILLER_1_1067
*246 FILLER_1_1097
*247 FILLER_1_1128
*248 FILLER_1_1138
*249 FILLER_1_1168
*250 FILLER_1_1199
*251 FILLER_1_1209
*252 FILLER_1_1239
*253 FILLER_1_1270
*254 FILLER_1_1280
*255 FILLER_1_130
*256 FILLER_1_1344
*257 FILLER_1_1348
*258 FILLER_1_1351
*259 FILLER_1_138
*260 FILLER_1_1383
*261 FILLER_1_1399
*262 FILLER_1_1401
*263 FILLER_1_144
*264 FILLER_1_176
*265 FILLER_1_180
*266 FILLER_1_182
*267 FILLER_1_2
*268 FILLER_1_212
*269 FILLER_1_215
*270 FILLER_1_252
*271 FILLER_1_283
*272 FILLER_1_286
*273 FILLER_1_302
*274 FILLER_1_310
*275 FILLER_1_314
*276 FILLER_1_316
*277 FILLER_1_346
*278 FILLER_1_354
*279 FILLER_1_357
*280 FILLER_1_39
*281 FILLER_1_394
*282 FILLER_1_425
*283 FILLER_1_428
*284 FILLER_1_465
*285 FILLER_1_496
*286 FILLER_1_499
*287 FILLER_1_515
*288 FILLER_1_567
*289 FILLER_1_570
*290 FILLER_1_621
*291 FILLER_1_637
*292 FILLER_1_641
*293 FILLER_1_692
*294 FILLER_1_70
*295 FILLER_1_708
*296 FILLER_1_712
*297 FILLER_1_728
*298 FILLER_1_73
*299 FILLER_1_780
*300 FILLER_1_783
*301 FILLER_1_834
*302 FILLER_1_850
*303 FILLER_1_854
*304 FILLER_1_884
*305 FILLER_1_89
*306 FILLER_1_916
*307 FILLER_1_920
*308 FILLER_1_922
*309 FILLER_1_925
*310 FILLER_1_955
*311 FILLER_1_97
*312 FILLER_1_986
*313 FILLER_1_996
*314 FILLER_2_1021
*315 FILLER_2_1031
*316 FILLER_2_105
*317 FILLER_2_1061
*318 FILLER_2_108
*319 FILLER_2_1092
*320 FILLER_2_110
*321 FILLER_2_1102
*322 FILLER_2_1132
*323 FILLER_2_1163
*324 FILLER_2_1173
*325 FILLER_2_1203
*326 FILLER_2_1234
*327 FILLER_2_1244
*328 FILLER_2_1274
*329 FILLER_2_1305
*330 FILLER_2_1315
*331 FILLER_2_1379
*332 FILLER_2_1383
*333 FILLER_2_1386
*334 FILLER_2_140
*335 FILLER_2_144
*336 FILLER_2_146
*337 FILLER_2_176
*338 FILLER_2_179
*339 FILLER_2_2
*340 FILLER_2_216
*341 FILLER_2_247
*342 FILLER_2_250
*343 FILLER_2_287
*344 FILLER_2_318
*345 FILLER_2_321
*346 FILLER_2_34
*347 FILLER_2_358
*348 FILLER_2_37
*349 FILLER_2_389
*350 FILLER_2_392
*351 FILLER_2_4
*352 FILLER_2_429
*353 FILLER_2_460
*354 FILLER_2_463
*355 FILLER_2_479
*356 FILLER_2_531
*357 FILLER_2_534
*358 FILLER_2_585
*359 FILLER_2_601
*360 FILLER_2_605
*361 FILLER_2_635
*362 FILLER_2_643
*363 FILLER_2_673
*364 FILLER_2_676
*365 FILLER_2_692
*366 FILLER_2_74
*367 FILLER_2_744
*368 FILLER_2_747
*369 FILLER_2_798
*370 FILLER_2_814
*371 FILLER_2_818
*372 FILLER_2_848
*373 FILLER_2_879
*374 FILLER_2_889
*375 FILLER_2_897
*376 FILLER_2_901
*377 FILLER_2_931
*378 FILLER_2_947
*379 FILLER_2_955
*380 FILLER_2_957
*381 FILLER_2_960
*382 FILLER_2_990
*383 FILLER_3_1012
*384 FILLER_3_1014
*385 FILLER_3_1017
*386 FILLER_3_104
*387 FILLER_3_1047
*388 FILLER_3_1049
*389 FILLER_3_1052
*390 FILLER_3_107
*391 FILLER_3_1082
*392 FILLER_3_1084
*393 FILLER_3_1087
*394 FILLER_3_109
*395 FILLER_3_1117
*396 FILLER_3_1119
*397 FILLER_3_1122
*398 FILLER_3_1152
*399 FILLER_3_1154
*400 FILLER_3_1157
*401 FILLER_3_1187
*402 FILLER_3_1189
*403 FILLER_3_1192
*404 FILLER_3_1222
*405 FILLER_3_1224
*406 FILLER_3_1227
*407 FILLER_3_1257
*408 FILLER_3_1259
*409 FILLER_3_1262
*410 FILLER_3_1292
*411 FILLER_3_1294
*412 FILLER_3_1297
*413 FILLER_3_1329
*414 FILLER_3_1332
*415 FILLER_3_1364
*416 FILLER_3_1367
*417 FILLER_3_139
*418 FILLER_3_1399
*419 FILLER_3_142
*420 FILLER_3_144
*421 FILLER_3_174
*422 FILLER_3_177
*423 FILLER_3_179
*424 FILLER_3_2
*425 FILLER_3_209
*426 FILLER_3_212
*427 FILLER_3_214
*428 FILLER_3_244
*429 FILLER_3_247
*430 FILLER_3_249
*431 FILLER_3_279
*432 FILLER_3_282
*433 FILLER_3_284
*434 FILLER_3_314
*435 FILLER_3_317
*436 FILLER_3_319
*437 FILLER_3_34
*438 FILLER_3_349
*439 FILLER_3_352
*440 FILLER_3_354
*441 FILLER_3_37
*442 FILLER_3_384
*443 FILLER_3_387
*444 FILLER_3_389
*445 FILLER_3_39
*446 FILLER_3_4
*447 FILLER_3_419
*448 FILLER_3_422
*449 FILLER_3_424
*450 FILLER_3_454
*451 FILLER_3_457
*452 FILLER_3_459
*453 FILLER_3_489
*454 FILLER_3_492
*455 FILLER_3_494
*456 FILLER_3_524
*457 FILLER_3_527
*458 FILLER_3_529
*459 FILLER_3_559
*460 FILLER_3_562
*461 FILLER_3_564
*462 FILLER_3_594
*463 FILLER_3_597
*464 FILLER_3_599
*465 FILLER_3_629
*466 FILLER_3_632
*467 FILLER_3_634
*468 FILLER_3_664
*469 FILLER_3_667
*470 FILLER_3_669
*471 FILLER_3_69
*472 FILLER_3_699
*473 FILLER_3_702
*474 FILLER_3_72
*475 FILLER_3_732
*476 FILLER_3_734
*477 FILLER_3_737
*478 FILLER_3_74
*479 FILLER_3_767
*480 FILLER_3_769
*481 FILLER_3_772
*482 FILLER_3_802
*483 FILLER_3_804
*484 FILLER_3_807
*485 FILLER_3_837
*486 FILLER_3_839
*487 FILLER_3_842
*488 FILLER_3_872
*489 FILLER_3_874
*490 FILLER_3_877
*491 FILLER_3_907
*492 FILLER_3_909
*493 FILLER_3_912
*494 FILLER_3_914
*495 FILLER_3_944
*496 FILLER_3_947
*497 FILLER_3_977
*498 FILLER_3_979
*499 FILLER_3_982
*500 PHY_0
*501 PHY_1
*502 PHY_2
*503 PHY_3
*504 PHY_4
*505 PHY_5
*506 PHY_6
*507 PHY_7
*508 TAP_10
*509 TAP_100
*510 TAP_101
*511 TAP_102
*512 TAP_103
*513 TAP_104
*514 TAP_105
*515 TAP_106
*516 TAP_107
*517 TAP_108
*518 TAP_109
*519 TAP_11
*520 TAP_110
*521 TAP_111
*522 TAP_112
*523 TAP_113
*524 TAP_114
*525 TAP_115
*526 TAP_116
*527 TAP_117
*528 TAP_118
*529 TAP_119
*530 TAP_12
*531 TAP_120
*532 TAP_121
*533 TAP_122
*534 TAP_123
*535 TAP_124
*536 TAP_125
*537 TAP_126
*538 TAP_13
*539 TAP_14
*540 TAP_15
*541 TAP_16
*542 TAP_17
*543 TAP_18
*544 TAP_19
*545 TAP_20
*546 TAP_21
*547 TAP_22
*548 TAP_23
*549 TAP_24
*550 TAP_25
*551 TAP_26
*552 TAP_27
*553 TAP_28
*554 TAP_29
*555 TAP_30
*556 TAP_31
*557 TAP_32
*558 TAP_33
*559 TAP_34
*560 TAP_35
*561 TAP_36
*562 TAP_37
*563 TAP_38
*564 TAP_39
*565 TAP_40
*566 TAP_41
*567 TAP_42
*568 TAP_43
*569 TAP_44
*570 TAP_45
*571 TAP_46
*572 TAP_47
*573 TAP_48
*574 TAP_49
*575 TAP_50
*576 TAP_51
*577 TAP_52
*578 TAP_53
*579 TAP_54
*580 TAP_55
*581 TAP_56
*582 TAP_57
*583 TAP_58
*584 TAP_59
*585 TAP_60
*586 TAP_61
*587 TAP_62
*588 TAP_63
*589 TAP_64
*590 TAP_65
*591 TAP_66
*592 TAP_67
*593 TAP_68
*594 TAP_69
*595 TAP_70
*596 TAP_71
*597 TAP_72
*598 TAP_73
*599 TAP_74
*600 TAP_75
*601 TAP_76
*602 TAP_77
*603 TAP_78
*604 TAP_79
*605 TAP_8
*606 TAP_80
*607 TAP_81
*608 TAP_82
*609 TAP_83
*610 TAP_84
*611 TAP_85
*612 TAP_86
*613 TAP_87
*614 TAP_88
*615 TAP_89
*616 TAP_9
*617 TAP_90
*618 TAP_91
*619 TAP_92
*620 TAP_93
*621 TAP_94
*622 TAP_95
*623 TAP_96
*624 TAP_97
*625 TAP_98
*626 TAP_99
*627 _000_
*628 _001_
*629 _002_
*630 _003_
*631 _004_
*632 _005_
*633 _006_
*634 _007_
*635 _008_
*636 _009_
*637 _010_
*638 _011_
*639 _012_
*640 _013_
*641 _014_
*642 _015_
*643 _016_
*644 _017_
*645 _018_
*646 _019_
*647 _020_
*648 _021_
*649 _022_
*650 _023_
*651 _024_
*652 _025_
*653 _026_
*654 _027_
*655 _028_
*656 _029_
*657 _030_
*658 _031_
*659 _032_
*660 _033_
*661 _034_
*662 _035_
*663 _036_
*664 _037_
*665 _038_
*666 _039_
*667 _040_
*668 _041_
*669 _042_
*670 _043_
*671 _044_
*672 _045_
*673 _046_
*674 _047_
*675 _048_
*676 _049_
*677 _050_
*678 _051_
*679 _052_
*680 _053_
*681 _054_
*682 _055_
*683 _056_
*684 _057_
*685 _058_
*686 _059_
*687 _060_
*688 _061_
*689 _062_
*690 _063_
*691 _064_
*692 _065_
*693 _066_
*694 _067_
*695 _068_
*696 _069_
*697 _070_
*698 _071_
*699 _072_
*700 _073_
*701 _074_
*702 _075_
*703 _076_
*704 _077_
*705 _078_
*706 _079_
*707 _080_
*708 _081_
*709 _082_
*710 _083_
*711 _084_
*712 _085_
*713 _086_
*714 _087_
*715 _088_
*716 _089_
*717 _090_
*718 _091_
*719 _092_
*720 _093_
*721 _094_
*722 _095_
*723 _096_
*724 _097_
*725 _098_
*726 _099_
*727 _100_
*728 _101_
*729 _102_
*730 _103_
*731 _104_
*732 _105_
*733 _106_
*734 _107_
*735 _108_
*736 _109_
*737 _110_
*738 _111_
*739 _112_
*740 _113_
*741 _114_
*742 _115_
*743 _116_
*744 _117_
*745 clkbuf_0_sclk
*746 clkbuf_3_0__f_sclk
*747 clkbuf_3_1__f_sclk
*748 clkbuf_3_2__f_sclk
*749 clkbuf_3_3__f_sclk
*750 clkbuf_3_4__f_sclk
*751 clkbuf_3_5__f_sclk
*752 clkbuf_3_6__f_sclk
*753 clkbuf_3_7__f_sclk

*PORTS
latch I
sclk I
sdin I
sr_out O
tune_s1_series_gy[0] O
tune_s1_series_gy[1] O
tune_s1_series_gy[2] O
tune_s1_series_gy[3] O
tune_s1_series_gy[4] O
tune_s1_series_gy[5] O
tune_s1_series_gygy[0] O
tune_s1_series_gygy[1] O
tune_s1_series_gygy[2] O
tune_s1_series_gygy[3] O
tune_s1_series_gygy[4] O
tune_s1_series_gygy[5] O
tune_s1_shunt[0] O
tune_s1_shunt[1] O
tune_s1_shunt[2] O
tune_s1_shunt[3] O
tune_s1_shunt[4] O
tune_s1_shunt[5] O
tune_s1_shunt[6] O
tune_s1_shunt[7] O
tune_s1_shunt_gy[0] O
tune_s1_shunt_gy[1] O
tune_s1_shunt_gy[2] O
tune_s1_shunt_gy[3] O
tune_s1_shunt_gy[4] O
tune_s1_shunt_gy[5] O
tune_s1_shunt_gy[6] O
tune_s2_series_gy[0] O
tune_s2_series_gy[1] O
tune_s2_series_gy[2] O
tune_s2_series_gy[3] O
tune_s2_series_gy[4] O
tune_s2_series_gy[5] O
tune_s2_series_gy[6] O
tune_s2_series_gy[7] O
tune_s2_series_gygy[0] O
tune_s2_series_gygy[1] O
tune_s2_series_gygy[2] O
tune_s2_series_gygy[3] O
tune_s2_series_gygy[4] O
tune_s2_series_gygy[5] O
tune_s2_series_gygy[6] O
tune_s2_series_gygy[7] O
tune_s2_shunt[0] O
tune_s2_shunt[10] O
tune_s2_shunt[1] O
tune_s2_shunt[2] O
tune_s2_shunt[3] O
tune_s2_shunt[4] O
tune_s2_shunt[5] O
tune_s2_shunt[6] O
tune_s2_shunt[7] O
tune_s2_shunt[8] O
tune_s2_shunt[9] O
tune_s2_shunt_gy[0] O
tune_s2_shunt_gy[1] O
tune_s2_shunt_gy[2] O
tune_s2_shunt_gy[3] O
tune_s2_shunt_gy[4] O

*D_NET *1 0.164642
*CONN
*P latch I
*I *728:CLK I *D gf180mcu_fd_sc_mcu7t5v0__dffq_1
*I *744:CLK I *D gf180mcu_fd_sc_mcu7t5v0__dffq_1
*I *627:CLK I *D gf180mcu_fd_sc_mcu7t5v0__dffq_1
*I *629:CLK I *D gf180mcu_fd_sc_mcu7t5v0__dffq_1
*I *631:CLK I *D gf180mcu_fd_sc_mcu7t5v0__dffq_1
*I *630:CLK I *D gf180mcu_fd_sc_mcu7t5v0__dffq_1
*I *736:CLK I *D gf180mcu_fd_sc_mcu7t5v0__dffq_1
*I *635:CLK I *D gf180mcu_fd_sc_mcu7t5v0__dffq_1
*I *741:CLK I *D gf180mcu_fd_sc_mcu7t5v0__dffq_1
*I *740:CLK I *D gf180mcu_fd_sc_mcu7t5v0__dffq_1
*I *636:CLK I *D gf180mcu_fd_sc_mcu7t5v0__dffq_1
*I *637:CLK I *D gf180mcu_fd_sc_mcu7t5v0__dffq_1
*I *640:CLK I *D gf180mcu_fd_sc_mcu7t5v0__dffq_1
*I *641:CLK I *D gf180mcu_fd_sc_mcu7t5v0__dffq_1
*I *656:CLK I *D gf180mcu_fd_sc_mcu7t5v0__dffq_1
*I *661:CLK I *D gf180mcu_fd_sc_mcu7t5v0__dffq_1
*I *660:CLK I *D gf180mcu_fd_sc_mcu7t5v0__dffq_1
*I *651:CLK I *D gf180mcu_fd_sc_mcu7t5v0__dffq_1
*I *666:CLK I *D gf180mcu_fd_sc_mcu7t5v0__dffq_1
*I *664:CLK I *D gf180mcu_fd_sc_mcu7t5v0__dffq_1
*I *665:CLK I *D gf180mcu_fd_sc_mcu7t5v0__dffq_1
*I *667:CLK I *D gf180mcu_fd_sc_mcu7t5v0__dffq_1
*I *663:CLK I *D gf180mcu_fd_sc_mcu7t5v0__dffq_1
*I *662:CLK I *D gf180mcu_fd_sc_mcu7t5v0__dffq_1
*I *650:CLK I *D gf180mcu_fd_sc_mcu7t5v0__dffq_1
*I *649:CLK I *D gf180mcu_fd_sc_mcu7t5v0__dffq_1
*I *648:CLK I *D gf180mcu_fd_sc_mcu7t5v0__dffq_1
*I *659:CLK I *D gf180mcu_fd_sc_mcu7t5v0__dffq_1
*I *658:CLK I *D gf180mcu_fd_sc_mcu7t5v0__dffq_1
*I *647:CLK I *D gf180mcu_fd_sc_mcu7t5v0__dffq_1
*I *657:CLK I *D gf180mcu_fd_sc_mcu7t5v0__dffq_1
*I *655:CLK I *D gf180mcu_fd_sc_mcu7t5v0__dffq_1
*I *652:CLK I *D gf180mcu_fd_sc_mcu7t5v0__dffq_1
*I *654:CLK I *D gf180mcu_fd_sc_mcu7t5v0__dffq_1
*I *653:CLK I *D gf180mcu_fd_sc_mcu7t5v0__dffq_1
*I *646:CLK I *D gf180mcu_fd_sc_mcu7t5v0__dffq_1
*I *645:CLK I *D gf180mcu_fd_sc_mcu7t5v0__dffq_1
*I *644:CLK I *D gf180mcu_fd_sc_mcu7t5v0__dffq_1
*I *643:CLK I *D gf180mcu_fd_sc_mcu7t5v0__dffq_1
*I *642:CLK I *D gf180mcu_fd_sc_mcu7t5v0__dffq_1
*I *639:CLK I *D gf180mcu_fd_sc_mcu7t5v0__dffq_1
*I *638:CLK I *D gf180mcu_fd_sc_mcu7t5v0__dffq_1
*I *738:CLK I *D gf180mcu_fd_sc_mcu7t5v0__dffq_1
*I *739:CLK I *D gf180mcu_fd_sc_mcu7t5v0__dffq_1
*I *737:CLK I *D gf180mcu_fd_sc_mcu7t5v0__dffq_1
*I *634:CLK I *D gf180mcu_fd_sc_mcu7t5v0__dffq_1
*I *735:CLK I *D gf180mcu_fd_sc_mcu7t5v0__dffq_1
*I *632:CLK I *D gf180mcu_fd_sc_mcu7t5v0__dffq_1
*I *633:CLK I *D gf180mcu_fd_sc_mcu7t5v0__dffq_1
*I *628:CLK I *D gf180mcu_fd_sc_mcu7t5v0__dffq_1
*I *742:CLK I *D gf180mcu_fd_sc_mcu7t5v0__dffq_1
*I *743:CLK I *D gf180mcu_fd_sc_mcu7t5v0__dffq_1
*I *734:CLK I *D gf180mcu_fd_sc_mcu7t5v0__dffq_1
*I *733:CLK I *D gf180mcu_fd_sc_mcu7t5v0__dffq_1
*I *732:CLK I *D gf180mcu_fd_sc_mcu7t5v0__dffq_1
*I *731:CLK I *D gf180mcu_fd_sc_mcu7t5v0__dffq_1
*I *730:CLK I *D gf180mcu_fd_sc_mcu7t5v0__dffq_1
*I *729:CLK I *D gf180mcu_fd_sc_mcu7t5v0__dffq_1
*I *727:CLK I *D gf180mcu_fd_sc_mcu7t5v0__dffq_1
*CAP
1 latch 0.000522474
2 *728:CLK 0
3 *744:CLK 0
4 *627:CLK 0
5 *629:CLK 9.71574e-06
6 *631:CLK 0.000165794
7 *630:CLK 0
8 *736:CLK 0.000322066
9 *635:CLK 0
10 *741:CLK 4.89144e-05
11 *740:CLK 0.000483717
12 *636:CLK 0
13 *637:CLK 0.000178682
14 *640:CLK 3.92225e-05
15 *641:CLK 0
16 *656:CLK 0
17 *661:CLK 0.000110501
18 *660:CLK 1.34372e-05
19 *651:CLK 8.71982e-05
20 *666:CLK 0.000388677
21 *664:CLK 0
22 *665:CLK 2.56718e-05
23 *667:CLK 9.52553e-05
24 *663:CLK 4.4518e-05
25 *662:CLK 5.60529e-05
26 *650:CLK 0.000181658
27 *649:CLK 7.93331e-05
28 *648:CLK 0.000385307
29 *659:CLK 8.24444e-05
30 *658:CLK 6.55929e-05
31 *647:CLK 0.000209159
32 *657:CLK 8.69831e-05
33 *655:CLK 0.000129098
34 *652:CLK 0.000189005
35 *654:CLK 0.00029008
36 *653:CLK 0
37 *646:CLK 0
38 *645:CLK 0.000284182
39 *644:CLK 0
40 *643:CLK 0.000157401
41 *642:CLK 0
42 *639:CLK 0
43 *638:CLK 2.97597e-05
44 *738:CLK 0.000146026
45 *739:CLK 3.62542e-05
46 *737:CLK 0
47 *634:CLK 3.55641e-05
48 *735:CLK 0
49 *632:CLK 0.000228486
50 *633:CLK 0
51 *628:CLK 1.55328e-05
52 *742:CLK 2.35743e-05
53 *743:CLK 0.000150525
54 *734:CLK 4.52751e-05
55 *733:CLK 4.17923e-05
56 *732:CLK 0.000194159
57 *731:CLK 4.1176e-05
58 *730:CLK 0
59 *729:CLK 0.000169614
60 *727:CLK 0
61 *1:516 0.000532631
62 *1:453 0.000567459
63 *1:441 0.000223223
64 *1:432 0.000233495
65 *1:423 0.000460122
66 *1:415 0.000414324
67 *1:404 0.000190406
68 *1:395 0.0004881
69 *1:390 0.000417961
70 *1:381 0.000280776
71 *1:379 0.000254329
72 *1:370 0.000577761
73 *1:361 0.000302377
74 *1:352 0.000323976
75 *1:343 0.000370127
76 *1:334 0.000467369
77 *1:329 0.000560149
78 *1:317 0.000613946
79 *1:308 0.000513364
80 *1:299 0.000920323
81 *1:289 0.000704065
82 *1:282 0.000466677
83 *1:273 0.000819869
84 *1:266 0.000654632
85 *1:257 0.000774887
86 *1:250 0.000716054
87 *1:247 0.00102177
88 *1:241 0.00126885
89 *1:231 0.00129663
90 *1:220 0.00116868
91 *1:210 0.000999386
92 *1:207 0.000683758
93 *1:202 0.000554931
94 *1:195 0.000473924
95 *1:186 0.00108557
96 *1:178 0.00119502
97 *1:173 0.000432131
98 *1:170 0.000579439
99 *1:159 0.000304636
100 *1:151 0.000361867
101 *1:140 0.000474059
102 *1:133 0.000399085
103 *1:130 0.000591512
104 *1:129 0.000595094
105 *1:124 0.000579018
106 *1:112 0.00041324
107 *1:103 0.000370529
108 *1:99 0.000509504
109 *1:94 0.000302961
110 *1:82 0.000513598
111 *1:73 0.000424568
112 *1:64 0.000213045
113 *1:53 0.000389324
114 *1:43 0.000445336
115 *1:28 0.000457244
116 *1:16 0.00044833
117 *1:11 0.000844572
118 *1:8 0.000876212
119 *628:CLK *628:D 1.22751e-05
120 *629:CLK tune_s1_series_gy[4] 0.000184127
121 *629:CLK *131:10 6.13757e-06
122 *631:CLK tune_s1_series_gy[5] 0.000159577
123 *631:CLK *631:D 0
124 *631:CLK *691:CLK 0
125 *631:CLK *88:11 2.07143e-05
126 *632:CLK *633:D 0.000331429
127 *634:CLK *735:D 0.000306879
128 *637:CLK tune_s1_shunt_gy[6] 0.000171852
129 *637:CLK tune_s2_shunt[0] 0.000184127
130 *638:CLK *638:D 3.06879e-06
131 *640:CLK *74:24 0.000306879
132 *643:CLK tune_s2_shunt[8] 0.000184127
133 *645:CLK *104:5 0.000117356
134 *647:CLK tune_s2_series_gy[6] 0.00015881
135 *647:CLK *658:D 0
136 *648:CLK tune_s2_series_gygy[1] 0
137 *648:CLK *710:D 0.000552382
138 *648:CLK *710:CLK 3.98942e-05
139 *648:CLK *720:D 0
140 *648:CLK *74:89 6.13757e-06
141 *649:CLK *649:D 0
142 *649:CLK *122:8 0
143 *650:CLK *650:D 0
144 *650:CLK *662:D 2.68519e-05
145 *650:CLK *123:7 0
146 *650:CLK *124:5 0
147 *651:CLK tune_s2_series_gygy[4] 0.000184127
148 *651:CLK *124:5 3.45115e-05
149 *652:CLK tune_s2_series_gy[2] 0
150 *652:CLK tune_s2_series_gy[3] 0
151 *652:CLK *652:D 0
152 *652:CLK *712:D 2.14815e-05
153 *654:CLK *654:D 3.06879e-05
154 *654:CLK *114:8 6.13757e-05
155 *655:CLK tune_s2_series_gy[4] 0.000107408
156 *655:CLK *655:D 2.76191e-05
157 *655:CLK *116:8 0.000306879
158 *657:CLK tune_s2_series_gy[6] 6.21306e-05
159 *657:CLK *711:CLK 0
160 *658:CLK tune_s2_series_gy[7] 3.45239e-05
161 *658:CLK *658:D 0
162 *659:CLK *659:D 0
163 *660:CLK tune_s2_series_gygy[2] 2.45503e-05
164 *660:CLK *721:D 9.20636e-06
165 *661:CLK tune_s2_series_gygy[2] 0.000161641
166 *661:CLK *649:D 0.000746038
167 *662:CLK *662:D 1.53439e-05
168 *662:CLK *124:5 4.83211e-05
169 *663:CLK tune_s2_series_gygy[5] 3.68254e-05
170 *665:CLK *665:D 6.13757e-06
171 *665:CLK *667:D 4.47532e-05
172 *666:CLK tune_s2_series_gygy[7] 0.000103572
173 *666:CLK *664:D 0
174 *666:CLK *726:CLK 0.000808207
175 *666:CLK *63:10 0
176 *666:CLK *127:10 0
177 *667:CLK *665:D 0.000110476
178 *667:CLK *667:D 0
179 *731:CLK tune_s1_shunt[3] 9.20636e-06
180 *731:CLK *731:D 2.07143e-05
181 *732:CLK tune_s1_shunt[4] 0.000552381
182 *732:CLK *732:D 0.000103572
183 *732:CLK *67:30 8.95063e-06
184 *732:CLK *128:9 5.52382e-05
185 *733:CLK *733:D 9.20636e-06
186 *733:CLK *128:9 3.68254e-05
187 *734:CLK tune_s1_shunt[6] 6.13758e-05
188 *734:CLK *734:D 6.13757e-06
189 *736:CLK tune_s1_series_gygy[4] 6.13757e-05
190 *736:CLK *635:D 6.13757e-05
191 *736:CLK *93:8 0.000184127
192 *738:CLK *738:D 0
193 *738:CLK *66:8 4.66274e-05
194 *739:CLK tune_s1_shunt_gy[2] 0.000102293
195 *740:CLK tune_s1_shunt_gy[3] 0
196 *740:CLK tune_s1_shunt_gy[4] 0
197 *740:CLK *741:D 0
198 *740:CLK *68:5 0
199 *741:CLK tune_s1_shunt_gy[3] 0
200 *742:CLK *84:8 0
201 *743:CLK *685:D 0.000306879
202 *743:CLK *70:45 9.8457e-05
203 *1:8 tune_s1_shunt[0] 0.00349842
204 *1:8 *670:D 0
205 *1:8 *670:CLK 0.000184127
206 *1:8 *86:7 2.07143e-05
207 *1:11 *668:D 0
208 *1:11 *670:CLK 0.000146099
209 *1:11 *727:D 0
210 *1:11 *75:8 0
211 *1:16 tune_s1_shunt[1] 6.13757e-05
212 *1:16 *727:D 3.37566e-05
213 *1:16 *97:12 0.000265962
214 *1:28 *670:CLK 9.94717e-05
215 *1:28 *75:8 0
216 *1:28 *97:12 8.39292e-05
217 *1:43 *670:CLK 0.0004427
218 *1:43 *671:D 0
219 *1:43 *672:CLK 0.000414464
220 *1:43 *730:D 0.000932547
221 *1:43 *67:30 0
222 *1:43 *69:30 6.99409e-06
223 *1:43 *97:12 0
224 *1:43 *108:12 0.000906643
225 *1:53 tune_s1_shunt[3] 1.84127e-05
226 *1:53 *672:CLK 0.000363693
227 *1:53 *731:D 4.83334e-05
228 *1:53 *69:30 0.000994715
229 *1:53 *128:9 0.000310849
230 *1:64 *672:CLK 6.29468e-05
231 *1:64 *674:D 6.34649e-05
232 *1:64 *69:30 0.000124339
233 *1:64 *128:9 0.000683868
234 *1:73 tune_s1_shunt[6] 0.00130557
235 *1:73 *674:D 0.00012693
236 *1:73 *69:30 0.00103616
237 *1:73 *70:47 0.000391669
238 *1:82 tune_s1_shunt[6] 0.000310849
239 *1:82 *676:D 0
240 *1:82 *69:30 0.00130556
241 *1:82 *70:41 0.000559528
242 *1:82 *70:45 0.000468579
243 *1:82 *70:47 1.39882e-05
244 *1:94 tune_s1_series_gy[0] 0
245 *1:94 *676:D 0
246 *1:94 *685:D 0.000675133
247 *1:94 *744:D 2.76191e-05
248 *1:94 *70:41 0.000559528
249 *1:99 tune_s1_series_gy[2] 0.000227955
250 *1:99 *676:D 0.000621697
251 *1:99 *686:D 0.000167858
252 *1:99 *744:D 0.000174852
253 *1:99 *70:41 3.41934e-05
254 *1:103 tune_s1_series_gy[0] 0.000683868
255 *1:103 tune_s1_series_gy[1] 0.000265925
256 *1:103 tune_s1_series_gy[2] 3.45239e-05
257 *1:103 *676:D 0.00075847
258 *1:103 *742:D 0.000269402
259 *1:103 *82:9 0
260 *1:112 *676:D 0.000161641
261 *1:112 *742:D 0.000248679
262 *1:124 tune_s1_series_gy[3] 4.19646e-05
263 *1:124 tune_s1_series_gy[4] 0.000675133
264 *1:124 *676:D 0.00028598
265 *1:124 *742:D 0.000621697
266 *1:124 *67:15 0.00180292
267 *1:124 *67:18 0
268 *1:124 *131:10 0.00012707
269 *1:129 *629:D 2.48679e-05
270 *1:129 *69:30 0
271 *1:129 *87:8 1.55425e-05
272 *1:129 *88:11 0.00105689
273 *1:129 *131:10 0.00366802
274 *1:130 *630:D 0.000103572
275 *1:130 *88:11 6.90477e-05
276 *1:133 tune_s1_series_gygy[0] 0.000559528
277 *1:133 *67:10 0
278 *1:133 *81:11 0.00466273
279 *1:140 *67:10 0
280 *1:140 *81:11 0.000497358
281 *1:151 tune_s1_series_gygy[3] 0.00118123
282 *1:151 *67:8 0
283 *1:151 *67:10 0
284 *1:151 *81:11 0.00373019
285 *1:159 tune_s1_series_gygy[3] 0.000117863
286 *1:159 *735:D 0
287 *1:159 *67:8 4.14464e-05
288 *1:159 *92:9 0.000683868
289 *1:170 tune_s1_series_gygy[3] 0.000290125
290 *1:170 tune_s1_shunt_gy[0] 0.00118123
291 *1:170 *67:8 0.000911822
292 *1:170 *81:11 2.17594e-05
293 *1:170 *92:9 0.000932547
294 *1:173 tune_s1_shunt_gy[0] 0
295 *1:173 *635:D 2.76136e-05
296 *1:178 tune_s1_series_gygy[5] 0.000248679
297 *1:178 tune_s1_shunt_gy[0] 0.000453321
298 *1:178 *76:8 0.000559528
299 *1:178 *81:11 0.00130557
300 *1:186 tune_s1_series_gygy[5] 0.000531887
301 *1:186 tune_s1_shunt_gy[1] 0
302 *1:186 *681:D 0.000115014
303 *1:186 *683:CLK 0.000184127
304 *1:186 *695:D 0.000183123
305 *1:186 *739:D 3.72963e-05
306 *1:186 *66:18 6.29343e-05
307 *1:186 *68:13 0
308 *1:186 *69:14 0.000181846
309 *1:186 *70:9 0.000842507
310 *1:186 *76:8 1.79013e-05
311 *1:186 *94:6 0.00553311
312 *1:195 *66:18 0.000482592
313 *1:195 *94:6 0.00441406
314 *1:202 tune_s1_shunt_gy[3] 5.28443e-05
315 *1:202 tune_s1_shunt_gy[5] 0.000110476
316 *1:202 tune_s1_shunt_gy[6] 0.000223811
317 *1:202 *636:D 2.14815e-05
318 *1:202 *66:18 0.000317324
319 *1:202 *94:6 0.00174075
320 *1:207 tune_s1_shunt_gy[6] 0.0026733
321 *1:207 *636:D 3.73019e-05
322 *1:207 *66:8 0
323 *1:207 *95:8 3.41934e-05
324 *1:210 tune_s1_shunt_gy[6] 3.68254e-05
325 *1:210 tune_s2_shunt[0] 0.000184127
326 *1:220 *66:8 0.000251788
327 *1:231 *66:8 0.00010258
328 *1:231 *66:40 0.000105689
329 *1:241 tune_s2_shunt[3] 0.000683868
330 *1:241 *700:CLK 0.000184127
331 *1:241 *66:40 0
332 *1:241 *66:45 0.000306879
333 *1:241 *66:54 6.13758e-05
334 *1:241 *74:24 0.00220953
335 *1:247 tune_s2_shunt[4] 0.0020516
336 *1:247 tune_s2_shunt[6] 0.000472014
337 *1:247 *641:D 0
338 *1:247 *753:I 0.000426121
339 *1:247 *66:54 0.000426121
340 *1:247 *73:19 0.000209823
341 *1:247 *99:8 0.000932547
342 *1:250 tune_s2_shunt[6] 0.00118123
343 *1:250 *73:19 0
344 *1:257 *73:19 0
345 *1:266 *73:19 0
346 *1:266 *73:26 0
347 *1:273 tune_s2_shunt[10] 0.000435189
348 *1:273 *73:26 0
349 *1:282 tune_s2_shunt[10] 0.00136774
350 *1:282 *646:D 4.66274e-05
351 *1:282 *706:D 3.10849e-06
352 *1:282 *73:26 0
353 *1:289 *706:D 3.10849e-05
354 *1:289 *73:33 0
355 *1:299 tune_s2_series_gy[0] 0.00404104
356 *1:299 *73:33 0
357 *1:299 *106:6 6.21698e-06
358 *1:308 tune_s2_series_gy[2] 0.000261113
359 *1:308 *714:D 3.49705e-05
360 *1:308 *73:33 0.00317066
361 *1:308 *113:10 0.00022666
362 *1:317 *72:32 0.000211377
363 *1:317 *73:33 0.00242462
364 *1:317 *73:40 0.00186509
365 *1:329 *72:32 9.32547e-05
366 *1:329 *73:40 0.00192726
367 *1:329 *112:10 3.68254e-05
368 *1:334 tune_s2_series_gy[5] 0.000211377
369 *1:334 tune_s2_series_gy[6] 6.21697e-05
370 *1:334 *71:24 0.000746036
371 *1:334 *72:32 0.000235727
372 *1:334 *72:41 0.000181312
373 *1:334 *112:10 2.76191e-05
374 *1:343 tune_s2_series_gy[6] 0.000207232
375 *1:343 *71:24 0.000124339
376 *1:343 *72:41 0.000190379
377 *1:352 *725:CLK 0.000181328
378 *1:352 *71:24 0.000373018
379 *1:352 *72:41 9.97306e-05
380 *1:361 tune_s2_series_gy[7] 0.000186509
381 *1:361 *649:D 0.00230028
382 *1:361 *725:CLK 0.000398922
383 *1:361 *71:24 0.000273547
384 *1:361 *120:8 0.000310848
385 *1:370 *649:D 0.0012434
386 *1:370 *725:CLK 0.000190395
387 *1:379 tune_s2_series_gygy[2] 6.21697e-05
388 *1:379 *649:D 0.00435189
389 *1:379 *660:D 0.000571961
390 *1:379 *725:CLK 8.15977e-05
391 *1:379 *121:6 0.000136773
392 *1:390 tune_s2_series_gygy[2] 0.000184105
393 *1:390 *721:D 3.37512e-05
394 *1:390 *122:8 0
395 *1:395 *650:D 0.000161641
396 *1:395 *651:D 0.00428972
397 *1:395 *662:D 0.000621698
398 *1:395 *722:D 0.000435189
399 *1:404 *662:D 1.53384e-05
400 *1:404 *124:5 4.83211e-05
401 *1:415 *59:8 0.00130557
402 *1:415 *60:10 0.00130557
403 *1:423 tune_s2_series_gygy[5] 0.000435189
404 *1:423 *663:D 0.00272252
405 *1:423 *723:D 2.07143e-05
406 *1:423 *59:8 4.53321e-05
407 *1:423 *61:10 0.000957413
408 *1:423 *124:5 7.59402e-05
409 *1:432 tune_s2_series_gygy[5] 0.000808207
410 *1:432 *59:8 0.000398922
411 *1:432 *61:10 0.0006963
412 *1:441 *59:8 6.34649e-05
413 *1:441 *61:10 7.46036e-05
414 *1:453 tune_s2_series_gygy[7] 0.000131166
415 *1:453 *667:D 0.000466932
416 *1:453 *59:8 7.25313e-05
417 *1:453 *61:10 0.000124339
*RES
1 latch *1:8 11.835 
2 *1:8 *1:11 8.91 
3 *1:11 *1:16 7.38 
4 *1:16 *727:CLK 4.5 
5 *1:16 *729:CLK 6.21 
6 *1:11 *1:28 2.97 
7 *1:28 *730:CLK 9 
8 *1:28 *1:43 10.98 
9 *1:43 *731:CLK 4.95 
10 *1:43 *1:53 9.9 
11 *1:53 *732:CLK 11.52 
12 *1:53 *1:64 1.53 
13 *1:64 *733:CLK 9.45 
14 *1:64 *1:73 6.39 
15 *1:73 *734:CLK 9.45 
16 *1:73 *1:82 6.93 
17 *1:82 *743:CLK 11.25 
18 *1:82 *1:94 6.3 
19 *1:94 *1:99 14.49 
20 *1:99 *1:103 11.16 
21 *1:103 *742:CLK 9.27 
22 *1:103 *1:112 1.17 
23 *1:112 *628:CLK 9.27 
24 *1:112 *1:124 12.06 
25 *1:124 *1:129 14.31 
26 *1:129 *1:130 2.43 
27 *1:130 *1:133 11.25 
28 *1:133 *633:CLK 9 
29 *1:133 *1:140 0.81 
30 *1:140 *632:CLK 11.61 
31 *1:140 *1:151 9.99 
32 *1:151 *735:CLK 4.5 
33 *1:151 *1:159 6.66 
34 *1:159 *634:CLK 9.45 
35 *1:159 *1:170 9.81 
36 *1:170 *1:173 1.26 
37 *1:173 *1:178 15.39 
38 *1:178 *737:CLK 4.5 
39 *1:178 *1:186 20.52 
40 *1:186 *739:CLK 9.45 
41 *1:186 *1:195 6.39 
42 *1:195 *1:202 13.23 
43 *1:202 *1:207 13.41 
44 *1:207 *1:210 6.93 
45 *1:210 *738:CLK 10.62 
46 *1:210 *1:220 7.29 
47 *1:220 *638:CLK 9.27 
48 *1:220 *1:231 6.3 
49 *1:231 *639:CLK 9 
50 *1:231 *1:241 14.22 
51 *1:241 *1:247 20.52 
52 *1:247 *1:250 10.89 
53 *1:250 *642:CLK 9 
54 *1:250 *1:257 2.07 
55 *1:257 *643:CLK 10.35 
56 *1:257 *1:266 4.41 
57 *1:266 *644:CLK 9 
58 *1:266 *1:273 2.25 
59 *1:273 *645:CLK 11.61 