*SPEF "ieee 1481-1999"
*DESIGN "user_proj_example"
*DATE "11:11:11 Fri 11 11, 1111"
*VENDOR "OpenRCX"
*PROGRAM "Parallel Extraction"
*VERSION "1.0"
*DESIGN_FLOW "NAME_SCOPE LOCAL" "PIN_CAP NONE"
*DIVIDER /
*DELIMITER :
*BUS_DELIMITER []
*T_UNIT 1 NS
*C_UNIT 1 PF
*R_UNIT 1 OHM
*L_UNIT 1 HENRY

*NAME_MAP
*1 io_in[0]
*2 io_in[10]
*3 io_in[11]
*4 io_in[12]
*5 io_in[13]
*6 io_in[14]
*7 io_in[15]
*8 io_in[16]
*9 io_in[17]
*10 io_in[18]
*11 io_in[19]
*12 io_in[1]
*13 io_in[20]
*14 io_in[21]
*15 io_in[22]
*16 io_in[23]
*17 io_in[24]
*18 io_in[25]
*19 io_in[26]
*20 io_in[27]
*21 io_in[28]
*22 io_in[29]
*23 io_in[2]
*24 io_in[30]
*25 io_in[31]
*26 io_in[32]
*27 io_in[33]
*28 io_in[34]
*29 io_in[35]
*30 io_in[36]
*31 io_in[37]
*32 io_in[3]
*33 io_in[4]
*34 io_in[5]
*35 io_in[6]
*36 io_in[7]
*37 io_in[8]
*38 io_in[9]
*39 net143
*40 net153
*41 net154
*42 net155
*43 net156
*44 net157
*45 net158
*46 net159
*47 net160
*48 net161
*49 net162
*50 net144
*51 net163
*52 net164
*53 net165
*54 net166
*55 net167
*56 net168
*57 net169
*58 net170
*59 net171
*60 net172
*61 net145
*62 net173
*63 net174
*64 net175
*65 net176
*66 net177
*67 net178
*68 net179
*69 net180
*70 net146
*71 net147
*72 net148
*73 net149
*74 net150
*75 net151
*76 net152
*77 net105
*78 net115
*79 net116
*80 net117
*81 net118
*82 net119
*83 net120
*84 net121
*85 net122
*86 net123
*87 net124
*88 net106
*89 net125
*90 net126
*91 net127
*92 net128
*93 net129
*94 net130
*95 net131
*96 net132
*97 net133
*98 net134
*99 net107
*100 net135
*101 net136
*102 net137
*103 net138
*104 net139
*105 net140
*106 net141
*107 net142
*108 net108
*109 net109
*110 net110
*111 net111
*112 net112
*113 net113
*114 net114
*115 net102
*116 net103
*117 net104
*118 la_data_in[0]
*119 la_data_in[10]
*120 la_data_in[11]
*121 la_data_in[12]
*122 la_data_in[13]
*123 la_data_in[14]
*124 la_data_in[15]
*125 la_data_in[16]
*126 la_data_in[17]
*127 la_data_in[18]
*128 la_data_in[19]
*129 la_data_in[1]
*130 la_data_in[20]
*131 la_data_in[21]
*132 la_data_in[22]
*133 la_data_in[23]
*134 la_data_in[24]
*135 la_data_in[25]
*136 la_data_in[26]
*137 la_data_in[27]
*138 la_data_in[28]
*139 la_data_in[29]
*140 la_data_in[2]
*141 la_data_in[30]
*142 la_data_in[31]
*143 la_data_in[32]
*144 la_data_in[33]
*145 la_data_in[34]
*146 la_data_in[35]
*147 la_data_in[36]
*148 la_data_in[37]
*149 la_data_in[38]
*150 la_data_in[39]
*151 la_data_in[3]
*152 la_data_in[40]
*153 la_data_in[41]
*154 la_data_in[42]
*155 la_data_in[43]
*156 la_data_in[44]
*157 la_data_in[45]
*158 la_data_in[46]
*159 la_data_in[47]
*160 la_data_in[48]
*161 la_data_in[49]
*162 la_data_in[4]
*163 la_data_in[50]
*164 la_data_in[51]
*165 la_data_in[52]
*166 la_data_in[53]
*167 la_data_in[54]
*168 la_data_in[55]
*169 la_data_in[56]
*170 la_data_in[57]
*171 la_data_in[58]
*172 la_data_in[59]
*173 la_data_in[5]
*174 la_data_in[60]
*175 la_data_in[61]
*176 la_data_in[62]
*177 la_data_in[63]
*178 la_data_in[6]
*179 la_data_in[7]
*180 la_data_in[8]
*181 la_data_in[9]
*182 net40
*183 net50
*184 net51
*185 net52
*186 net53
*187 net54
*188 net55
*189 net56
*190 net57
*191 net58
*192 net59
*193 net41
*194 net60
*195 net61
*196 net62
*197 net63
*198 net64
*199 net65
*200 net66
*201 net67
*202 net68
*203 net69
*204 net42
*205 net70
*206 net71
*207 la_data_out[32]
*208 la_data_out[33]
*209 net72
*210 net73
*211 net74
*212 net75
*213 net76
*214 net77
*215 net43
*216 net78
*217 net79
*218 net80
*219 net81
*220 net82
*221 net83
*222 net84
*223 net85
*224 net86
*225 net87
*226 net44
*227 net88
*228 net89
*229 net90
*230 net91
*231 net92
*232 net93
*233 net94
*234 net95
*235 net96
*236 net97
*237 net45
*238 net98
*239 net99
*240 net100
*241 net101
*242 net46
*243 net47
*244 net48
*245 net49
*246 la_oenb[0]
*247 la_oenb[10]
*248 la_oenb[11]
*249 la_oenb[12]
*250 la_oenb[13]
*251 la_oenb[14]
*252 la_oenb[15]
*253 la_oenb[16]
*254 la_oenb[17]
*255 la_oenb[18]
*256 la_oenb[19]
*257 la_oenb[1]
*258 la_oenb[20]
*259 la_oenb[21]
*260 la_oenb[22]
*261 la_oenb[23]
*262 la_oenb[24]
*263 la_oenb[25]
*264 la_oenb[26]
*265 la_oenb[27]
*266 la_oenb[28]
*267 la_oenb[29]
*268 la_oenb[2]
*269 la_oenb[30]
*270 la_oenb[31]
*271 la_oenb[32]
*272 la_oenb[33]
*273 la_oenb[34]
*274 la_oenb[35]
*275 la_oenb[36]
*276 la_oenb[37]
*277 la_oenb[38]
*278 la_oenb[39]
*279 la_oenb[3]
*280 la_oenb[40]
*281 la_oenb[41]
*282 la_oenb[42]
*283 la_oenb[43]
*284 la_oenb[44]
*285 la_oenb[45]
*286 la_oenb[46]
*287 la_oenb[47]
*288 la_oenb[48]
*289 la_oenb[49]
*290 la_oenb[4]
*291 la_oenb[50]
*292 la_oenb[51]
*293 la_oenb[52]
*294 la_oenb[53]
*295 la_oenb[54]
*296 la_oenb[55]
*297 la_oenb[56]
*298 la_oenb[57]
*299 la_oenb[58]
*300 la_oenb[59]
*301 la_oenb[5]
*302 la_oenb[60]
*303 la_oenb[61]
*304 la_oenb[62]
*305 la_oenb[63]
*306 la_oenb[6]
*307 la_oenb[7]
*308 la_oenb[8]
*309 la_oenb[9]
*312 wb_clk_i
*313 wb_rst_i
*314 net181
*315 wbs_adr_i[0]
*316 wbs_adr_i[10]
*317 wbs_adr_i[11]
*318 wbs_adr_i[12]
*319 wbs_adr_i[13]
*320 wbs_adr_i[14]
*321 wbs_adr_i[15]
*322 wbs_adr_i[16]
*323 wbs_adr_i[17]
*324 wbs_adr_i[18]
*325 wbs_adr_i[19]
*326 wbs_adr_i[1]
*327 wbs_adr_i[20]
*328 wbs_adr_i[21]
*329 wbs_adr_i[22]
*330 wbs_adr_i[23]
*331 wbs_adr_i[24]
*332 wbs_adr_i[25]
*333 wbs_adr_i[26]
*334 wbs_adr_i[27]
*335 wbs_adr_i[28]
*336 wbs_adr_i[29]
*337 wbs_adr_i[2]
*338 wbs_adr_i[30]
*339 wbs_adr_i[31]
*340 wbs_adr_i[3]
*341 wbs_adr_i[4]
*342 wbs_adr_i[5]
*343 wbs_adr_i[6]
*344 wbs_adr_i[7]
*345 wbs_adr_i[8]
*346 wbs_adr_i[9]
*347 wbs_cyc_i
*348 wbs_dat_i[0]
*349 wbs_dat_i[10]
*350 wbs_dat_i[11]
*351 wbs_dat_i[12]
*352 wbs_dat_i[13]
*353 wbs_dat_i[14]
*354 wbs_dat_i[15]
*355 wbs_dat_i[16]
*356 wbs_dat_i[17]
*357 wbs_dat_i[18]
*358 wbs_dat_i[19]
*359 wbs_dat_i[1]
*360 wbs_dat_i[20]
*361 wbs_dat_i[21]
*362 wbs_dat_i[22]
*363 wbs_dat_i[23]
*364 wbs_dat_i[24]
*365 wbs_dat_i[25]
*366 wbs_dat_i[26]
*367 wbs_dat_i[27]
*368 wbs_dat_i[28]
*369 wbs_dat_i[29]
*370 wbs_dat_i[2]
*371 wbs_dat_i[30]
*372 wbs_dat_i[31]
*373 wbs_dat_i[3]
*374 wbs_dat_i[4]
*375 wbs_dat_i[5]
*376 wbs_dat_i[6]
*377 wbs_dat_i[7]
*378 wbs_dat_i[8]
*379 wbs_dat_i[9]
*380 net182
*381 net192
*382 net193
*383 net194
*384 net195
*385 net196
*386 net197
*387 net198
*388 net199
*389 net200
*390 net201
*391 net183
*392 net202
*393 net203
*394 net204
*395 net205
*396 net206
*397 net207
*398 net208
*399 net209
*400 net210
*401 net211
*402 net184
*403 net212
*404 net213
*405 net185
*406 net186
*407 net187
*408 net188
*409 net189
*410 net190
*411 net191
*412 wbs_sel_i[0]
*413 wbs_sel_i[1]
*414 wbs_sel_i[2]
*415 wbs_sel_i[3]
*416 wbs_stb_i
*417 wbs_we_i
*418 _000_
*419 _001_
*420 _002_
*421 net1
*422 net10
*423 net11
*424 net12
*425 net13
*426 net14
*427 net15
*428 net16
*429 net17
*430 net18
*431 net19
*432 net2
*433 net20
*434 net21
*435 net214
*436 net215
*437 net22
*438 net23
*439 net24
*440 net25
*441 net26
*442 net27
*443 net28
*444 net29
*445 net3
*446 net30
*447 net31
*448 net32
*449 net33
*450 net34
*451 net35
*452 net36
*453 net37
*454 net38
*455 net39
*456 net4
*457 net5
*458 net6
*459 net7
*460 net8
*461 net9
*462 u_inj\.outn
*463 u_inj\.outp
*464 u_inj\.signal_n
*465 u_inj\.trim_n_r\[0\]
*466 u_inj\.trim_n_r\[1\]
*467 u_inj\.trim_n_r\[2\]
*468 u_inj\.trim_n_r\[3\]
*469 u_inj\.trim_p_r\[0\]
*470 u_inj\.trim_p_r\[1\]
*471 u_inj\.trim_p_r\[2\]
*472 u_inj\.trim_p_r\[3\]
*473 ANTENNA__031__A1
*474 ANTENNA__033__CLK
*475 ANTENNA__033__D
*476 ANTENNA__034__CLK
*477 ANTENNA__034__D
*478 ANTENNA__035__CLK
*479 ANTENNA__035__D
*480 ANTENNA__036__CLK
*481 ANTENNA__037__CLK
*482 ANTENNA__037__D
*483 ANTENNA__038__CLK
*484 ANTENNA__038__D
*485 ANTENNA__039__CLK
*486 ANTENNA__039__D
*487 ANTENNA__040__CLK
*488 ANTENNA__040__D
*489 ANTENNA__242__I
*490 ANTENNA__243__I
*491 ANTENNA_fanout11_I
*492 ANTENNA_fanout12_I
*493 ANTENNA_fanout13_I
*494 ANTENNA_input10_I
*495 ANTENNA_input1_I
*496 ANTENNA_input2_I
*497 ANTENNA_input3_I
*498 ANTENNA_input4_I
*499 ANTENNA_input5_I
*500 ANTENNA_input6_I
*501 ANTENNA_input7_I
*502 ANTENNA_input8_I
*503 ANTENNA_input9_I
*504 ANTENNA_u_inj\.gen_PU\[0\]\.pun_I
*505 ANTENNA_u_inj\.gen_PU\[10\]\.pun_I
*506 ANTENNA_u_inj\.gen_PU\[11\]\.pun_I
*507 ANTENNA_u_inj\.gen_PU\[12\]\.pun_I
*508 ANTENNA_u_inj\.gen_PU\[13\]\.pun_I
*509 ANTENNA_u_inj\.gen_PU\[14\]\.pun_I
*510 ANTENNA_u_inj\.gen_PU\[15\]\.pun_I
*511 ANTENNA_u_inj\.gen_PU\[16\]\.pun_I
*512 ANTENNA_u_inj\.gen_PU\[17\]\.pun_I
*513 ANTENNA_u_inj\.gen_PU\[18\]\.pun_I
*514 ANTENNA_u_inj\.gen_PU\[1\]\.pun_I
*515 ANTENNA_u_inj\.gen_PU\[2\]\.pun_I
*516 ANTENNA_u_inj\.gen_PU\[3\]\.pun_I
*517 ANTENNA_u_inj\.gen_PU\[4\]\.pun_I
*518 ANTENNA_u_inj\.gen_PU\[5\]\.pun_I
*519 ANTENNA_u_inj\.gen_PU\[6\]\.pun_I
*520 ANTENNA_u_inj\.gen_PU\[6\]\.pup_I
*521 ANTENNA_u_inj\.gen_PU\[7\]\.pun_I
*522 ANTENNA_u_inj\.gen_PU\[7\]\.pup_I
*523 ANTENNA_u_inj\.gen_PU\[8\]\.pun_I
*524 ANTENNA_u_inj\.gen_PU\[9\]\.pun_I
*525 ANTENNA_u_inj\.gen_PU\[9\]\.pup_I
*526 ANTENNA_u_inj\.gen_TRIM\[0\]\.ntrimn_EN
*527 ANTENNA_u_inj\.gen_TRIM\[0\]\.ntrimp_EN
*528 ANTENNA_u_inj\.gen_TRIM\[0\]\.ptrimn_I
*529 ANTENNA_u_inj\.gen_TRIM\[0\]\.ptrimp_I
*530 ANTENNA_u_inj\.gen_TRIM\[1\]\.ntrimn_EN
*531 ANTENNA_u_inj\.gen_TRIM\[1\]\.ntrimp_EN
*532 ANTENNA_u_inj\.gen_TRIM\[1\]\.ptrimn_I
*533 ANTENNA_u_inj\.gen_TRIM\[1\]\.ptrimp_I
*534 ANTENNA_u_inj\.gen_TRIM\[2\]\.ptrimn_EN
*535 ANTENNA_u_inj\.gen_TRIM\[2\]\.ptrimn_I
*536 ANTENNA_u_inj\.gen_TRIM\[2\]\.ptrimp_EN
*537 ANTENNA_u_inj\.gen_TRIM\[2\]\.ptrimp_I
*538 ANTENNA_u_inj\.gen_TRIM\[3\]\.ntrimn_EN
*539 ANTENNA_u_inj\.gen_TRIM\[3\]\.ntrimp_EN
*540 ANTENNA_u_inj\.gen_TRIM\[3\]\.ptrimn_EN
*541 ANTENNA_u_inj\.gen_TRIM\[3\]\.ptrimn_I
*542 ANTENNA_u_inj\.gen_TRIM\[3\]\.ptrimp_EN
*543 ANTENNA_u_inj\.gen_TRIM\[3\]\.ptrimp_I
*544 FILLER_0_1001
*545 FILLER_0_1009
*546 FILLER_0_1013
*547 FILLER_0_1017
*548 FILLER_0_102
*549 FILLER_0_1022
*550 FILLER_0_1026
*551 FILLER_0_1031
*552 FILLER_0_1039
*553 FILLER_0_104
*554 FILLER_0_1041
*555 FILLER_0_1046
*556 FILLER_0_1052
*557 FILLER_0_1059
*558 FILLER_0_1067
*559 FILLER_0_107
*560 FILLER_0_1071
*561 FILLER_0_1075
*562 FILLER_0_1083
*563 FILLER_0_1087
*564 FILLER_0_1092
*565 FILLER_0_1100
*566 FILLER_0_1106
*567 FILLER_0_1114
*568 FILLER_0_1119
*569 FILLER_0_112
*570 FILLER_0_1122
*571 FILLER_0_1124
*572 FILLER_0_1154
*573 FILLER_0_1157
*574 FILLER_0_116
*575 FILLER_0_1175
*576 FILLER_0_1181
*577 FILLER_0_1187
*578 FILLER_0_1189
*579 FILLER_0_1192
*580 FILLER_0_1197
*581 FILLER_0_120
*582 FILLER_0_1205
*583 FILLER_0_1211
*584 FILLER_0_1219
*585 FILLER_0_1224
*586 FILLER_0_1227
*587 FILLER_0_1231
*588 FILLER_0_1250
*589 FILLER_0_1256
*590 FILLER_0_126
*591 FILLER_0_1262
*592 FILLER_0_1265
*593 FILLER_0_1271
*594 FILLER_0_1279
*595 FILLER_0_1281
*596 FILLER_0_1286
*597 FILLER_0_1294
*598 FILLER_0_1297
*599 FILLER_0_1302
*600 FILLER_0_1310
*601 FILLER_0_1316
*602 FILLER_0_1324
*603 FILLER_0_1329
*604 FILLER_0_1332
*605 FILLER_0_1334
*606 FILLER_0_134
*607 FILLER_0_1364
*608 FILLER_0_1367
*609 FILLER_0_1371
*610 FILLER_0_1376
*611 FILLER_0_138
*612 FILLER_0_1384
*613 FILLER_0_1386
*614 FILLER_0_1391
*615 FILLER_0_1399
*616 FILLER_0_1402
*617 FILLER_0_1407
*618 FILLER_0_1415
*619 FILLER_0_142
*620 FILLER_0_1421
*621 FILLER_0_1429
*622 FILLER_0_1433
*623 FILLER_0_1437
*624 FILLER_0_1442
*625 FILLER_0_1446
*626 FILLER_0_1451
*627 FILLER_0_1459
*628 FILLER_0_1461
*629 FILLER_0_1466
*630 FILLER_0_147
*631 FILLER_0_1472
*632 FILLER_0_1476
*633 FILLER_0_1481
*634 FILLER_0_1489
*635 FILLER_0_1491
*636 FILLER_0_1496
*637 FILLER_0_1504
*638 FILLER_0_1507
*639 FILLER_0_1512
*640 FILLER_0_1520
*641 FILLER_0_1526
*642 FILLER_0_1530
*643 FILLER_0_1536
*644 FILLER_0_1542
*645 FILLER_0_1547
*646 FILLER_0_155
*647 FILLER_0_1553
*648 FILLER_0_1569
*649 FILLER_0_1573
*650 FILLER_0_1577
*651 FILLER_0_159
*652 FILLER_0_161
*653 FILLER_0_166
*654 FILLER_0_174
*655 FILLER_0_177
*656 FILLER_0_182
*657 FILLER_0_190
*658 FILLER_0_196
*659 FILLER_0_2
*660 FILLER_0_204
*661 FILLER_0_209
*662 FILLER_0_212
*663 FILLER_0_242
*664 FILLER_0_244
*665 FILLER_0_247
*666 FILLER_0_250
*667 FILLER_0_256
*668 FILLER_0_264
*669 FILLER_0_266
*670 FILLER_0_271
*671 FILLER_0_275
*672 FILLER_0_279
*673 FILLER_0_282
*674 FILLER_0_287
*675 FILLER_0_308
*676 FILLER_0_314
*677 FILLER_0_317
*678 FILLER_0_322
*679 FILLER_0_326
*680 FILLER_0_331
*681 FILLER_0_339
*682 FILLER_0_34
*683 FILLER_0_341
*684 FILLER_0_346
*685 FILLER_0_352
*686 FILLER_0_356
*687 FILLER_0_361
*688 FILLER_0_369
*689 FILLER_0_37
*690 FILLER_0_371
*691 FILLER_0_376
*692 FILLER_0_384
*693 FILLER_0_387
*694 FILLER_0_392
*695 FILLER_0_400
*696 FILLER_0_406
*697 FILLER_0_414
*698 FILLER_0_418
*699 FILLER_0_422
*700 FILLER_0_427
*701 FILLER_0_431
*702 FILLER_0_436
*703 FILLER_0_444
*704 FILLER_0_446
*705 FILLER_0_45
*706 FILLER_0_451
*707 FILLER_0_457
*708 FILLER_0_487
*709 FILLER_0_489
*710 FILLER_0_49
*711 FILLER_0_492
*712 FILLER_0_497
*713 FILLER_0_499
*714 FILLER_0_506
*715 FILLER_0_51
*716 FILLER_0_514
*717 FILLER_0_522
*718 FILLER_0_524
*719 FILLER_0_527
*720 FILLER_0_532
*721 FILLER_0_534
*722 FILLER_0_539
*723 FILLER_0_545
*724 FILLER_0_551
*725 FILLER_0_559
*726 FILLER_0_56
*727 FILLER_0_562
*728 FILLER_0_570
*729 FILLER_0_578
*730 FILLER_0_588
*731 FILLER_0_594
*732 FILLER_0_597
*733 FILLER_0_600
*734 FILLER_0_608
*735 FILLER_0_614
*736 FILLER_0_616
*737 FILLER_0_623
*738 FILLER_0_629
*739 FILLER_0_632
*740 FILLER_0_634
*741 FILLER_0_64
*742 FILLER_0_664
*743 FILLER_0_667
*744 FILLER_0_674
*745 FILLER_0_676
*746 FILLER_0_68
*747 FILLER_0_683
*748 FILLER_0_689
*749 FILLER_0_691
*750 FILLER_0_698
*751 FILLER_0_702
*752 FILLER_0_705
*753 FILLER_0_715
*754 FILLER_0_72
*755 FILLER_0_721
*756 FILLER_0_725
*757 FILLER_0_731
*758 FILLER_0_737
*759 FILLER_0_743
*760 FILLER_0_762
*761 FILLER_0_768
*762 FILLER_0_772
*763 FILLER_0_777
*764 FILLER_0_785
*765 FILLER_0_791
*766 FILLER_0_795
*767 FILLER_0_798
*768 FILLER_0_804
*769 FILLER_0_807
*770 FILLER_0_837
*771 FILLER_0_839
*772 FILLER_0_842
*773 FILLER_0_846
*774 FILLER_0_848
*775 FILLER_0_853
*776 FILLER_0_859
*777 FILLER_0_861
*778 FILLER_0_866
*779 FILLER_0_874
*780 FILLER_0_877
*781 FILLER_0_882
*782 FILLER_0_890
*783 FILLER_0_896
*784 FILLER_0_904
*785 FILLER_0_908
*786 FILLER_0_912
*787 FILLER_0_917
*788 FILLER_0_921
*789 FILLER_0_926
*790 FILLER_0_928
*791 FILLER_0_931
*792 FILLER_0_935
*793 FILLER_0_941
*794 FILLER_0_947
*795 FILLER_0_977
*796 FILLER_0_979
*797 FILLER_0_982
*798 FILLER_0_987
*799 FILLER_0_995
*800 FILLER_10_101
*801 FILLER_10_1024
*802 FILLER_10_1028
*803 FILLER_10_1031
*804 FILLER_10_105
*805 FILLER_10_108
*806 FILLER_10_1095
*807 FILLER_10_1099
*808 FILLER_10_1102
*809 FILLER_10_1166
*810 FILLER_10_1170
*811 FILLER_10_1173
*812 FILLER_10_1237
*813 FILLER_10_1241
*814 FILLER_10_1244
*815 FILLER_10_1308
*816 FILLER_10_1312
*817 FILLER_10_1315
*818 FILLER_10_1379
*819 FILLER_10_1383
*820 FILLER_10_1386
*821 FILLER_10_1450
*822 FILLER_10_1454
*823 FILLER_10_1457
*824 FILLER_10_1521
*825 FILLER_10_1525
*826 FILLER_10_1528
*827 FILLER_10_1560
*828 FILLER_10_1576
*829 FILLER_10_1580
*830 FILLER_10_172
*831 FILLER_10_176
*832 FILLER_10_179
*833 FILLER_10_2
*834 FILLER_10_243
*835 FILLER_10_247
*836 FILLER_10_250
*837 FILLER_10_314
*838 FILLER_10_318
*839 FILLER_10_321
*840 FILLER_10_34
*841 FILLER_10_37
*842 FILLER_10_385
*843 FILLER_10_389
*844 FILLER_10_392
*845 FILLER_10_456
*846 FILLER_10_460
*847 FILLER_10_463
*848 FILLER_10_527
*849 FILLER_10_531
*850 FILLER_10_534
*851 FILLER_10_598
*852 FILLER_10_602
*853 FILLER_10_605
*854 FILLER_10_669
*855 FILLER_10_673
*856 FILLER_10_676
*857 FILLER_10_740
*858 FILLER_10_744
*859 FILLER_10_747
*860 FILLER_10_811
*861 FILLER_10_815
*862 FILLER_10_818
*863 FILLER_10_882
*864 FILLER_10_886
*865 FILLER_10_889
*866 FILLER_10_953
*867 FILLER_10_957
*868 FILLER_10_960
*869 FILLER_11_1060
*870 FILLER_11_1064
*871 FILLER_11_1067
*872 FILLER_11_1131
*873 FILLER_11_1135
*874 FILLER_11_1138
*875 FILLER_11_1202
*876 FILLER_11_1206
*877 FILLER_11_1209
*878 FILLER_11_1273
*879 FILLER_11_1277
*880 FILLER_11_1280
*881 FILLER_11_1344
*882 FILLER_11_1348
*883 FILLER_11_1351
*884 FILLER_11_137
*885 FILLER_11_141
*886 FILLER_11_1415
*887 FILLER_11_1419
*888 FILLER_11_1422
*889 FILLER_11_144
*890 FILLER_11_1486
*891 FILLER_11_1490
*892 FILLER_11_1493
*893 FILLER_11_1557
*894 FILLER_11_1561
*895 FILLER_11_1564
*896 FILLER_11_1580
*897 FILLER_11_2
*898 FILLER_11_208
*899 FILLER_11_212
*900 FILLER_11_215
*901 FILLER_11_279
*902 FILLER_11_283
*903 FILLER_11_286
*904 FILLER_11_350
*905 FILLER_11_354
*906 FILLER_11_357
*907 FILLER_11_421
*908 FILLER_11_425
*909 FILLER_11_428
*910 FILLER_11_492
*911 FILLER_11_496
*912 FILLER_11_499
*913 FILLER_11_563
*914 FILLER_11_567
*915 FILLER_11_570
*916 FILLER_11_634
*917 FILLER_11_638
*918 FILLER_11_641
*919 FILLER_11_66
*920 FILLER_11_70
*921 FILLER_11_705
*922 FILLER_11_709
*923 FILLER_11_712
*924 FILLER_11_73
*925 FILLER_11_776
*926 FILLER_11_780
*927 FILLER_11_783
*928 FILLER_11_847
*929 FILLER_11_851
*930 FILLER_11_854
*931 FILLER_11_918
*932 FILLER_11_922
*933 FILLER_11_925
*934 FILLER_11_989
*935 FILLER_11_993
*936 FILLER_11_996
*937 FILLER_12_101
*938 FILLER_12_1024
*939 FILLER_12_1028
*940 FILLER_12_1031
*941 FILLER_12_105
*942 FILLER_12_108
*943 FILLER_12_1095
*944 FILLER_12_1099
*945 FILLER_12_1102
*946 FILLER_12_1166
*947 FILLER_12_1170
*948 FILLER_12_1173
*949 FILLER_12_1237
*950 FILLER_12_1241
*951 FILLER_12_1244
*952 FILLER_12_1308
*953 FILLER_12_1312
*954 FILLER_12_1315
*955 FILLER_12_1379
*956 FILLER_12_1383
*957 FILLER_12_1386
*958 FILLER_12_1450
*959 FILLER_12_1454
*960 FILLER_12_1457
*961 FILLER_12_1521
*962 FILLER_12_1525
*963 FILLER_12_1528
*964 FILLER_12_1560
*965 FILLER_12_1576
*966 FILLER_12_1580
*967 FILLER_12_172
*968 FILLER_12_176
*969 FILLER_12_179
*970 FILLER_12_2
*971 FILLER_12_243
*972 FILLER_12_247
*973 FILLER_12_250
*974 FILLER_12_314
*975 FILLER_12_318
*976 FILLER_12_321
*977 FILLER_12_34
*978 FILLER_12_37
*979 FILLER_12_385
*980 FILLER_12_389
*981 FILLER_12_392
*982 FILLER_12_456
*983 FILLER_12_460
*984 FILLER_12_463
*985 FILLER_12_527
*986 FILLER_12_531
*987 FILLER_12_534
*988 FILLER_12_598
*989 FILLER_12_602
*990 FILLER_12_605
*991 FILLER_12_669
*992 FILLER_12_673
*993 FILLER_12_676
*994 FILLER_12_740
*995 FILLER_12_744
*996 FILLER_12_747
*997 FILLER_12_811
*998 FILLER_12_815
*999 FILLER_12_818
*1000 FILLER_12_882
*1001 FILLER_12_886
*1002 FILLER_12_889
*1003 FILLER_12_953
*1004 FILLER_12_957
*1005 FILLER_12_960
*1006 FILLER_13_1060
*1007 FILLER_13_1064
*1008 FILLER_13_1067
*1009 FILLER_13_1131
*1010 FILLER_13_1135
*1011 FILLER_13_1138
*1012 FILLER_13_1202
*1013 FILLER_13_1206
*1014 FILLER_13_1209
*1015 FILLER_13_1273
*1016 FILLER_13_1277
*1017 FILLER_13_1280
*1018 FILLER_13_1344
*1019 FILLER_13_1348
*1020 FILLER_13_1351
*1021 FILLER_13_137
*1022 FILLER_13_141
*1023 FILLER_13_1415
*1024 FILLER_13_1419
*1025 FILLER_13_1422
*1026 FILLER_13_144
*1027 FILLER_13_1486
*1028 FILLER_13_1490
*1029 FILLER_13_1493
*1030 FILLER_13_1557
*1031 FILLER_13_1561
*1032 FILLER_13_1564
*1033 FILLER_13_1580
*1034 FILLER_13_2
*1035 FILLER_13_208
*1036 FILLER_13_212
*1037 FILLER_13_215
*1038 FILLER_13_279
*1039 FILLER_13_283
*1040 FILLER_13_286
*1041 FILLER_13_350
*1042 FILLER_13_354
*1043 FILLER_13_357
*1044 FILLER_13_421
*1045 FILLER_13_425
*1046 FILLER_13_428
*1047 FILLER_13_492
*1048 FILLER_13_496
*1049 FILLER_13_499
*1050 FILLER_13_563
*1051 FILLER_13_567
*1052 FILLER_13_570
*1053 FILLER_13_634
*1054 FILLER_13_638
*1055 FILLER_13_641
*1056 FILLER_13_66
*1057 FILLER_13_70
*1058 FILLER_13_705
*1059 FILLER_13_709
*1060 FILLER_13_712
*1061 FILLER_13_73
*1062 FILLER_13_776
*1063 FILLER_13_780
*1064 FILLER_13_783
*1065 FILLER_13_847
*1066 FILLER_13_851
*1067 FILLER_13_854
*1068 FILLER_13_918
*1069 FILLER_13_922
*1070 FILLER_13_925
*1071 FILLER_13_989
*1072 FILLER_13_993
*1073 FILLER_13_996
*1074 FILLER_14_101
*1075 FILLER_14_1024
*1076 FILLER_14_1028
*1077 FILLER_14_1031
*1078 FILLER_14_105
*1079 FILLER_14_108
*1080 FILLER_14_1095
*1081 FILLER_14_1099
*1082 FILLER_14_1102
*1083 FILLER_14_1166
*1084 FILLER_14_1170
*1085 FILLER_14_1173
*1086 FILLER_14_1237
*1087 FILLER_14_1241
*1088 FILLER_14_1244
*1089 FILLER_14_1308
*1090 FILLER_14_1312
*1091 FILLER_14_1315
*1092 FILLER_14_1379
*1093 FILLER_14_1383
*1094 FILLER_14_1386
*1095 FILLER_14_1450
*1096 FILLER_14_1454
*1097 FILLER_14_1457
*1098 FILLER_14_1521
*1099 FILLER_14_1525
*1100 FILLER_14_1528
*1101 FILLER_14_1560
*1102 FILLER_14_1576
*1103 FILLER_14_1580
*1104 FILLER_14_172
*1105 FILLER_14_176
*1106 FILLER_14_179
*1107 FILLER_14_2
*1108 FILLER_14_243
*1109 FILLER_14_247
*1110 FILLER_14_250
*1111 FILLER_14_314
*1112 FILLER_14_318
*1113 FILLER_14_321
*1114 FILLER_14_34
*1115 FILLER_14_37
*1116 FILLER_14_385
*1117 FILLER_14_389
*1118 FILLER_14_392
*1119 FILLER_14_456
*1120 FILLER_14_460
*1121 FILLER_14_463
*1122 FILLER_14_527
*1123 FILLER_14_531
*1124 FILLER_14_534
*1125 FILLER_14_598
*1126 FILLER_14_602
*1127 FILLER_14_605
*1128 FILLER_14_669
*1129 FILLER_14_673
*1130 FILLER_14_676
*1131 FILLER_14_740
*1132 FILLER_14_744
*1133 FILLER_14_747
*1134 FILLER_14_811
*1135 FILLER_14_815
*1136 FILLER_14_818
*1137 FILLER_14_882
*1138 FILLER_14_886
*1139 FILLER_14_889
*1140 FILLER_14_953
*1141 FILLER_14_957
*1142 FILLER_14_960
*1143 FILLER_15_1060
*1144 FILLER_15_1064
*1145 FILLER_15_1067
*1146 FILLER_15_1131
*1147 FILLER_15_1135
*1148 FILLER_15_1138
*1149 FILLER_15_1202
*1150 FILLER_15_1206
*1151 FILLER_15_1209
*1152 FILLER_15_1273
*1153 FILLER_15_1277
*1154 FILLER_15_1280
*1155 FILLER_15_1344
*1156 FILLER_15_1348
*1157 FILLER_15_1351
*1158 FILLER_15_137
*1159 FILLER_15_141
*1160 FILLER_15_1415
*1161 FILLER_15_1419
*1162 FILLER_15_1422
*1163 FILLER_15_144
*1164 FILLER_15_1486
*1165 FILLER_15_1490
*1166 FILLER_15_1493
*1167 FILLER_15_1557
*1168 FILLER_15_1561
*1169 FILLER_15_1564
*1170 FILLER_15_1572
*1171 FILLER_15_1580
*1172 FILLER_15_2
*1173 FILLER_15_208
*1174 FILLER_15_212
*1175 FILLER_15_215
*1176 FILLER_15_279
*1177 FILLER_15_283
*1178 FILLER_15_286
*1179 FILLER_15_350
*1180 FILLER_15_354
*1181 FILLER_15_357
*1182 FILLER_15_421
*1183 FILLER_15_425
*1184 FILLER_15_428
*1185 FILLER_15_492
*1186 FILLER_15_496
*1187 FILLER_15_499
*1188 FILLER_15_563
*1189 FILLER_15_567
*1190 FILLER_15_570
*1191 FILLER_15_634
*1192 FILLER_15_638
*1193 FILLER_15_641
*1194 FILLER_15_66
*1195 FILLER_15_70
*1196 FILLER_15_705
*1197 FILLER_15_709
*1198 FILLER_15_712
*1199 FILLER_15_73
*1200 FILLER_15_776
*1201 FILLER_15_780
*1202 FILLER_15_783
*1203 FILLER_15_847
*1204 FILLER_15_851
*1205 FILLER_15_854
*1206 FILLER_15_918
*1207 FILLER_15_922
*1208 FILLER_15_925
*1209 FILLER_15_989
*1210 FILLER_15_993
*1211 FILLER_15_996
*1212 FILLER_16_10
*1213 FILLER_16_1017
*1214 FILLER_16_1021
*1215 FILLER_16_1027
*1216 FILLER_16_103
*1217 FILLER_16_1035
*1218 FILLER_16_1041
*1219 FILLER_16_1049
*1220 FILLER_16_1052
*1221 FILLER_16_1060
*1222 FILLER_16_1064
*1223 FILLER_16_1069
*1224 FILLER_16_107
*1225 FILLER_16_1077
*1226 FILLER_16_1083
*1227 FILLER_16_1087
*1228 FILLER_16_1103
*1229 FILLER_16_111
*1230 FILLER_16_1111
*1231 FILLER_16_1119
*1232 FILLER_16_1122
*1233 FILLER_16_1127
*1234 FILLER_16_1143
*1235 FILLER_16_1147
*1236 FILLER_16_1153
*1237 FILLER_16_1157
*1238 FILLER_16_1161
*1239 FILLER_16_1167
*1240 FILLER_16_117
*1241 FILLER_16_1183
*1242 FILLER_16_1187
*1243 FILLER_16_1189
*1244 FILLER_16_1192
*1245 FILLER_16_1197
*1246 FILLER_16_1209
*1247 FILLER_16_1227
*1248 FILLER_16_1231
*1249 FILLER_16_1237
*1250 FILLER_16_1245
*1251 FILLER_16_1251
*1252 FILLER_16_1259
*1253 FILLER_16_1262
*1254 FILLER_16_1270
*1255 FILLER_16_1274
*1256 FILLER_16_1279
*1257 FILLER_16_1287
*1258 FILLER_16_1293
*1259 FILLER_16_1297
*1260 FILLER_16_1313
*1261 FILLER_16_1321
*1262 FILLER_16_1329
*1263 FILLER_16_133
*1264 FILLER_16_1332
*1265 FILLER_16_1337
*1266 FILLER_16_1353
*1267 FILLER_16_1357
*1268 FILLER_16_1363
*1269 FILLER_16_1367
*1270 FILLER_16_137
*1271 FILLER_16_1371
*1272 FILLER_16_1377
*1273 FILLER_16_139
*1274 FILLER_16_1393
*1275 FILLER_16_1397
*1276 FILLER_16_1399
*1277 FILLER_16_14
*1278 FILLER_16_1402
*1279 FILLER_16_1407
*1280 FILLER_16_1419
*1281 FILLER_16_142
*1282 FILLER_16_1437
*1283 FILLER_16_1441
*1284 FILLER_16_1447
*1285 FILLER_16_1455
*1286 FILLER_16_1461
*1287 FILLER_16_1469
*1288 FILLER_16_147
*1289 FILLER_16_1472
*1290 FILLER_16_1480
*1291 FILLER_16_1484
*1292 FILLER_16_1489
*1293 FILLER_16_1497
*1294 FILLER_16_1503
*1295 FILLER_16_1507
*1296 FILLER_16_1523
*1297 FILLER_16_1531
*1298 FILLER_16_1539
*1299 FILLER_16_1542
*1300 FILLER_16_1547
*1301 FILLER_16_1563
*1302 FILLER_16_1567
*1303 FILLER_16_1573
*1304 FILLER_16_1577
*1305 FILLER_16_159
*1306 FILLER_16_177
*1307 FILLER_16_181
*1308 FILLER_16_187
*1309 FILLER_16_19
*1310 FILLER_16_195
*1311 FILLER_16_2
*1312 FILLER_16_201
*1313 FILLER_16_209
*1314 FILLER_16_212
*1315 FILLER_16_220
*1316 FILLER_16_224
*1317 FILLER_16_229
*1318 FILLER_16_237
*1319 FILLER_16_243
*1320 FILLER_16_247
*1321 FILLER_16_263
*1322 FILLER_16_27
*1323 FILLER_16_271
*1324 FILLER_16_279
*1325 FILLER_16_282
*1326 FILLER_16_287
*1327 FILLER_16_303
*1328 FILLER_16_307
*1329 FILLER_16_313
*1330 FILLER_16_317
*1331 FILLER_16_321
*1332 FILLER_16_327
*1333 FILLER_16_33
*1334 FILLER_16_343
*1335 FILLER_16_347
*1336 FILLER_16_349
*1337 FILLER_16_352
*1338 FILLER_16_357
*1339 FILLER_16_369
*1340 FILLER_16_37
*1341 FILLER_16_387
*1342 FILLER_16_391
*1343 FILLER_16_397
*1344 FILLER_16_405
*1345 FILLER_16_411
*1346 FILLER_16_419
*1347 FILLER_16_422
*1348 FILLER_16_430
*1349 FILLER_16_434
*1350 FILLER_16_439
*1351 FILLER_16_447
*1352 FILLER_16_453
*1353 FILLER_16_457
*1354 FILLER_16_473
*1355 FILLER_16_481
*1356 FILLER_16_489
*1357 FILLER_16_492
*1358 FILLER_16_497
*1359 FILLER_16_513
*1360 FILLER_16_517
*1361 FILLER_16_523
*1362 FILLER_16_527
*1363 FILLER_16_53
*1364 FILLER_16_531
*1365 FILLER_16_537
*1366 FILLER_16_553
*1367 FILLER_16_557
*1368 FILLER_16_559
*1369 FILLER_16_562
*1370 FILLER_16_567
*1371 FILLER_16_579
*1372 FILLER_16_597
*1373 FILLER_16_601
*1374 FILLER_16_607
*1375 FILLER_16_61
*1376 FILLER_16_615
*1377 FILLER_16_621
*1378 FILLER_16_629
*1379 FILLER_16_632
*1380 FILLER_16_640
*1381 FILLER_16_644
*1382 FILLER_16_649
*1383 FILLER_16_657
*1384 FILLER_16_663
*1385 FILLER_16_667
*1386 FILLER_16_683
*1387 FILLER_16_69
*1388 FILLER_16_691
*1389 FILLER_16_699
*1390 FILLER_16_702
*1391 FILLER_16_707
*1392 FILLER_16_72
*1393 FILLER_16_723
*1394 FILLER_16_727
*1395 FILLER_16_733
*1396 FILLER_16_737
*1397 FILLER_16_741
*1398 FILLER_16_747
*1399 FILLER_16_763
*1400 FILLER_16_767
*1401 FILLER_16_769
*1402 FILLER_16_77
*1403 FILLER_16_772
*1404 FILLER_16_777
*1405 FILLER_16_789
*1406 FILLER_16_807
*1407 FILLER_16_811
*1408 FILLER_16_817
*1409 FILLER_16_825
*1410 FILLER_16_831
*1411 FILLER_16_839
*1412 FILLER_16_842
*1413 FILLER_16_850
*1414 FILLER_16_854
*1415 FILLER_16_859
*1416 FILLER_16_867
*1417 FILLER_16_873
*1418 FILLER_16_877
*1419 FILLER_16_893
*1420 FILLER_16_901
*1421 FILLER_16_909
*1422 FILLER_16_912
*1423 FILLER_16_917
*1424 FILLER_16_93
*1425 FILLER_16_933
*1426 FILLER_16_937
*1427 FILLER_16_943
*1428 FILLER_16_947
*1429 FILLER_16_951
*1430 FILLER_16_957
*1431 FILLER_16_97
*1432 FILLER_16_973
*1433 FILLER_16_977
*1434 FILLER_16_979
*1435 FILLER_16_982
*1436 FILLER_16_987
*1437 FILLER_16_999
*1438 FILLER_1_1001
*1439 FILLER_1_1007
*1440 FILLER_1_1013
*1441 FILLER_1_1019
*1442 FILLER_1_102
*1443 FILLER_1_1025
*1444 FILLER_1_1041
*1445 FILLER_1_1045
*1446 FILLER_1_106
*1447 FILLER_1_1064
*1448 FILLER_1_1067
*1449 FILLER_1_1072
*1450 FILLER_1_1104
*1451 FILLER_1_1120
*1452 FILLER_1_1123
*1453 FILLER_1_1127
*1454 FILLER_1_1135
*1455 FILLER_1_1138
*1456 FILLER_1_1143
*1457 FILLER_1_1151
*1458 FILLER_1_1170
*1459 FILLER_1_1176
*1460 FILLER_1_1182
*1461 FILLER_1_1198
*1462 FILLER_1_1206
*1463 FILLER_1_1209
*1464 FILLER_1_1225
*1465 FILLER_1_1246
*1466 FILLER_1_1252
*1467 FILLER_1_1258
*1468 FILLER_1_1262
*1469 FILLER_1_1280
*1470 FILLER_1_1312
*1471 FILLER_1_1328
*1472 FILLER_1_1330
*1473 FILLER_1_1333
*1474 FILLER_1_1337
*1475 FILLER_1_1341
*1476 FILLER_1_1346
*1477 FILLER_1_1348
*1478 FILLER_1_1351
*1479 FILLER_1_1355
*1480 FILLER_1_1361
*1481 FILLER_1_138
*1482 FILLER_1_1393
*1483 FILLER_1_1409
*1484 FILLER_1_1417
*1485 FILLER_1_1419
*1486 FILLER_1_1422
*1487 FILLER_1_144
*1488 FILLER_1_1486
*1489 FILLER_1_1490
*1490 FILLER_1_1493
*1491 FILLER_1_1557
*1492 FILLER_1_1561
*1493 FILLER_1_1564
*1494 FILLER_1_1580
*1495 FILLER_1_2
*1496 FILLER_1_208
*1497 FILLER_1_212
*1498 FILLER_1_215
*1499 FILLER_1_219
*1500 FILLER_1_221
*1501 FILLER_1_226
*1502 FILLER_1_234
*1503 FILLER_1_236
*1504 FILLER_1_241
*1505 FILLER_1_245
*1506 FILLER_1_261
*1507 FILLER_1_264
*1508 FILLER_1_283
*1509 FILLER_1_286
*1510 FILLER_1_289
*1511 FILLER_1_293
*1512 FILLER_1_311
*1513 FILLER_1_315
*1514 FILLER_1_319
*1515 FILLER_1_351
*1516 FILLER_1_357
*1517 FILLER_1_421
*1518 FILLER_1_425
*1519 FILLER_1_428
*1520 FILLER_1_446
*1521 FILLER_1_450
*1522 FILLER_1_458
*1523 FILLER_1_466
*1524 FILLER_1_470
*1525 FILLER_1_472
*1526 FILLER_1_475
*1527 FILLER_1_481
*1528 FILLER_1_485
*1529 FILLER_1_488
*1530 FILLER_1_496
*1531 FILLER_1_499
*1532 FILLER_1_505
*1533 FILLER_1_513
*1534 FILLER_1_541
*1535 FILLER_1_545
*1536 FILLER_1_551
*1537 FILLER_1_559
*1538 FILLER_1_567
*1539 FILLER_1_570
*1540 FILLER_1_575
*1541 FILLER_1_603
*1542 FILLER_1_611
*1543 FILLER_1_619
*1544 FILLER_1_621
*1545 FILLER_1_626
*1546 FILLER_1_630
*1547 FILLER_1_638
*1548 FILLER_1_641
*1549 FILLER_1_645
*1550 FILLER_1_653
*1551 FILLER_1_659
*1552 FILLER_1_66
*1553 FILLER_1_665
*1554 FILLER_1_671
*1555 FILLER_1_677
*1556 FILLER_1_685
*1557 FILLER_1_687
*1558 FILLER_1_690
*1559 FILLER_1_696
*1560 FILLER_1_70
*1561 FILLER_1_702
*1562 FILLER_1_712
*1563 FILLER_1_728
*1564 FILLER_1_73
*1565 FILLER_1_732
*1566 FILLER_1_736
*1567 FILLER_1_740
*1568 FILLER_1_744
*1569 FILLER_1_763
*1570 FILLER_1_779
*1571 FILLER_1_783
*1572 FILLER_1_799
*1573 FILLER_1_803
*1574 FILLER_1_806
*1575 FILLER_1_81
*1576 FILLER_1_810
*1577 FILLER_1_815
*1578 FILLER_1_821
*1579 FILLER_1_827
*1580 FILLER_1_831
*1581 FILLER_1_836
*1582 FILLER_1_840
*1583 FILLER_1_842
*1584 FILLER_1_847
*1585 FILLER_1_851
*1586 FILLER_1_854
*1587 FILLER_1_859
*1588 FILLER_1_86
*1589 FILLER_1_865