*SPEF "ieee 1481-1999"
*DESIGN "active_load"
*DATE "11:11:11 Fri 11 11, 1111"
*VENDOR "OpenRCX"
*PROGRAM "Parallel Extraction"
*VERSION "1.0"
*DESIGN_FLOW "NAME_SCOPE LOCAL" "PIN_CAP NONE"
*DIVIDER /
*DELIMITER :
*BUS_DELIMITER []
*T_UNIT 1 NS
*C_UNIT 1 PF
*R_UNIT 1 OHM
*L_UNIT 1 HENRY

*NAME_MAP
*1 nbus
*2 outn
*3 outnn
*4 outp
*5 outpn
*6 outxor
*7 pbus
*8 FILLER_0_14
*9 FILLER_0_2
*10 FILLER_0_20
*11 FILLER_0_26
*12 FILLER_0_32
*13 FILLER_0_34
*14 FILLER_0_37
*15 FILLER_0_42
*16 FILLER_0_50
*17 FILLER_0_56
*18 FILLER_0_62
*19 FILLER_0_68
*20 FILLER_0_72
*21 FILLER_0_8
*22 FILLER_0_80
*23 FILLER_1_14
*24 FILLER_1_2
*25 FILLER_1_20
*26 FILLER_1_26
*27 FILLER_1_32
*28 FILLER_1_36
*29 FILLER_1_42
*30 FILLER_1_48
*31 FILLER_1_54
*32 FILLER_1_60
*33 FILLER_1_66
*34 FILLER_1_70
*35 FILLER_1_73
*36 FILLER_1_75
*37 FILLER_1_8
*38 FILLER_1_80
*39 FILLER_2_10
*40 FILLER_2_16
*41 FILLER_2_2
*42 FILLER_2_22
*43 FILLER_2_28
*44 FILLER_2_34
*45 FILLER_2_37
*46 FILLER_2_42
*47 FILLER_2_46
*48 FILLER_2_48
*49 FILLER_2_53
*50 FILLER_2_59
*51 FILLER_2_65
*52 FILLER_2_69
*53 FILLER_2_74
*54 FILLER_2_80
*55 FILLER_3_13
*56 FILLER_3_19
*57 FILLER_3_2
*58 FILLER_3_25
*59 FILLER_3_31
*60 FILLER_3_37
*61 FILLER_3_43
*62 FILLER_3_49
*63 FILLER_3_53
*64 FILLER_3_55
*65 FILLER_3_60
*66 FILLER_3_66
*67 FILLER_3_7
*68 FILLER_3_70
*69 FILLER_3_73
*70 FILLER_3_75
*71 FILLER_3_80
*72 FILLER_4_14
*73 FILLER_4_2
*74 FILLER_4_20
*75 FILLER_4_26
*76 FILLER_4_32
*77 FILLER_4_34
*78 FILLER_4_37
*79 FILLER_4_42
*80 FILLER_4_48
*81 FILLER_4_54
*82 FILLER_4_66
*83 FILLER_4_8
*84 FILLER_4_80
*85 FILLER_5_10
*86 FILLER_5_16
*87 FILLER_5_2
*88 FILLER_5_22
*89 FILLER_5_28
*90 FILLER_5_34
*91 FILLER_5_40
*92 FILLER_5_46
*93 FILLER_5_62
*94 FILLER_5_70
*95 FILLER_5_73
*96 FILLER_5_75
*97 FILLER_5_80
*98 FILLER_6_10
*99 FILLER_6_16
*100 FILLER_6_2
*101 FILLER_6_22
*102 FILLER_6_28
*103 FILLER_6_34
*104 FILLER_6_37
*105 FILLER_6_69
*106 FILLER_6_72
*107 FILLER_6_80
*108 PHY_0
*109 PHY_1
*110 PHY_10
*111 PHY_11
*112 PHY_12
*113 PHY_13
*114 PHY_2
*115 PHY_3
*116 PHY_4
*117 PHY_5
*118 PHY_6
*119 PHY_7
*120 PHY_8
*121 PHY_9
*122 TAP_14
*123 TAP_15
*124 TAP_16
*125 TAP_17
*126 TAP_18
*127 TAP_19
*128 TAP_20
*129 TAP_21
*130 TAP_22
*131 oinvn
*132 oinvp
*133 oxor
*134 u_amp\.gen_FB\[0\]\.fbn
*135 u_amp\.gen_FB\[0\]\.fbp
*136 u_amp\.gen_FB\[1\]\.fbn
*137 u_amp\.gen_FB\[1\]\.fbp
*138 u_amp\.gen_FB\[2\]\.fbn
*139 u_amp\.gen_FB\[2\]\.fbp
*140 u_amp\.gen_FB\[3\]\.fbn
*141 u_amp\.gen_FB\[3\]\.fbp
*142 u_amp\.gen_T\[0\]\.thrun
*143 u_amp\.gen_T\[0\]\.thrup
*144 u_amp\.gen_T\[1\]\.thrun
*145 u_amp\.gen_T\[1\]\.thrup
*146 u_amp\.gen_T\[2\]\.thrun
*147 u_amp\.gen_T\[2\]\.thrup
*148 u_amp\.gen_T\[3\]\.thrun
*149 u_amp\.gen_T\[3\]\.thrup
*150 u_amp\.gen_X\[0\]\.crossn
*151 u_amp\.gen_X\[0\]\.crossp
*152 u_amp\.gen_X\[1\]\.crossn
*153 u_amp\.gen_X\[1\]\.crossp
*154 u_load\.gen_FB\[0\]\.fbn
*155 u_load\.gen_FB\[0\]\.fbp
*156 u_load\.gen_FB\[1\]\.fbn
*157 u_load\.gen_FB\[1\]\.fbp
*158 u_load\.gen_FB\[2\]\.fbn
*159 u_load\.gen_FB\[2\]\.fbp
*160 u_load\.gen_FB\[3\]\.fbn
*161 u_load\.gen_FB\[3\]\.fbp
*162 u_load\.gen_T\[0\]\.thrun
*163 u_load\.gen_T\[0\]\.thrup
*164 u_load\.gen_T\[10\]\.thrun
*165 u_load\.gen_T\[10\]\.thrup
*166 u_load\.gen_T\[11\]\.thrun
*167 u_load\.gen_T\[11\]\.thrup
*168 u_load\.gen_T\[1\]\.thrun
*169 u_load\.gen_T\[1\]\.thrup
*170 u_load\.gen_T\[2\]\.thrun
*171 u_load\.gen_T\[2\]\.thrup
*172 u_load\.gen_T\[3\]\.thrun
*173 u_load\.gen_T\[3\]\.thrup
*174 u_load\.gen_T\[4\]\.thrun
*175 u_load\.gen_T\[4\]\.thrup
*176 u_load\.gen_T\[5\]\.thrun
*177 u_load\.gen_T\[5\]\.thrup
*178 u_load\.gen_T\[6\]\.thrun
*179 u_load\.gen_T\[6\]\.thrup
*180 u_load\.gen_T\[7\]\.thrun
*181 u_load\.gen_T\[7\]\.thrup
*182 u_load\.gen_T\[8\]\.thrun
*183 u_load\.gen_T\[8\]\.thrup
*184 u_load\.gen_T\[9\]\.thrun
*185 u_load\.gen_T\[9\]\.thrup
*186 u_load\.gen_X\[0\]\.crossn
*187 u_load\.gen_X\[0\]\.crossp
*188 u_load\.gen_X\[1\]\.crossn
*189 u_load\.gen_X\[1\]\.crossp
*190 u_load\.gen_X\[2\]\.crossn
*191 u_load\.gen_X\[2\]\.crossp
*192 u_load\.gen_X\[3\]\.crossn
*193 u_load\.gen_X\[3\]\.crossp
*194 u_load\.gen_X\[4\]\.crossn
*195 u_load\.gen_X\[4\]\.crossp
*196 u_load\.gen_X\[5\]\.crossn
*197 u_load\.gen_X\[5\]\.crossp

*PORTS
nbus I
outn I
outnn O
outp I
outpn O
outxor O
pbus I

*D_NET *1 0.0120732
*CONN
*P nbus I
*I *149:I I *D gf180mcu_fd_sc_mcu7t5v0__inv_1
*I *145:I I *D gf180mcu_fd_sc_mcu7t5v0__inv_1
*I *143:I I *D gf180mcu_fd_sc_mcu7t5v0__inv_1
*I *147:I I *D gf180mcu_fd_sc_mcu7t5v0__inv_1
*I *195:ZN O *D gf180mcu_fd_sc_mcu7t5v0__inv_1
*I *163:ZN O *D gf180mcu_fd_sc_mcu7t5v0__inv_1
*I *161:ZN O *D gf180mcu_fd_sc_mcu7t5v0__inv_1
*I *161:I I *D gf180mcu_fd_sc_mcu7t5v0__inv_1
*I *163:I I *D gf180mcu_fd_sc_mcu7t5v0__inv_1
*I *183:I I *D gf180mcu_fd_sc_mcu7t5v0__inv_1
*I *183:ZN O *D gf180mcu_fd_sc_mcu7t5v0__inv_1
*I *159:ZN O *D gf180mcu_fd_sc_mcu7t5v0__inv_1
*I *159:I I *D gf180mcu_fd_sc_mcu7t5v0__inv_1
*I *185:ZN O *D gf180mcu_fd_sc_mcu7t5v0__inv_1
*I *185:I I *D gf180mcu_fd_sc_mcu7t5v0__inv_1
*I *186:I I *D gf180mcu_fd_sc_mcu7t5v0__inv_1
*I *190:I I *D gf180mcu_fd_sc_mcu7t5v0__inv_1
*I *196:I I *D gf180mcu_fd_sc_mcu7t5v0__inv_1
*I *189:ZN O *D gf180mcu_fd_sc_mcu7t5v0__inv_1
*I *179:ZN O *D gf180mcu_fd_sc_mcu7t5v0__inv_1
*I *179:I I *D gf180mcu_fd_sc_mcu7t5v0__inv_1
*I *155:ZN O *D gf180mcu_fd_sc_mcu7t5v0__inv_1
*I *155:I I *D gf180mcu_fd_sc_mcu7t5v0__inv_1
*I *157:ZN O *D gf180mcu_fd_sc_mcu7t5v0__inv_1
*I *157:I I *D gf180mcu_fd_sc_mcu7t5v0__inv_1
*I *194:I I *D gf180mcu_fd_sc_mcu7t5v0__inv_1
*I *173:I I *D gf180mcu_fd_sc_mcu7t5v0__inv_1
*I *173:ZN O *D gf180mcu_fd_sc_mcu7t5v0__inv_1
*I *171:ZN O *D gf180mcu_fd_sc_mcu7t5v0__inv_1
*I *171:I I *D gf180mcu_fd_sc_mcu7t5v0__inv_1
*I *177:ZN O *D gf180mcu_fd_sc_mcu7t5v0__inv_1
*I *177:I I *D gf180mcu_fd_sc_mcu7t5v0__inv_1
*I *169:ZN O *D gf180mcu_fd_sc_mcu7t5v0__inv_1
*I *169:I I *D gf180mcu_fd_sc_mcu7t5v0__inv_1
*I *175:I I *D gf180mcu_fd_sc_mcu7t5v0__inv_1
*I *175:ZN O *D gf180mcu_fd_sc_mcu7t5v0__inv_1
*I *165:ZN O *D gf180mcu_fd_sc_mcu7t5v0__inv_1
*I *165:I I *D gf180mcu_fd_sc_mcu7t5v0__inv_1
*I *167:ZN O *D gf180mcu_fd_sc_mcu7t5v0__inv_1
*I *167:I I *D gf180mcu_fd_sc_mcu7t5v0__inv_1
*I *181:ZN O *D gf180mcu_fd_sc_mcu7t5v0__inv_1
*I *181:I I *D gf180mcu_fd_sc_mcu7t5v0__inv_1
*I *187:ZN O *D gf180mcu_fd_sc_mcu7t5v0__inv_1
*I *193:ZN O *D gf180mcu_fd_sc_mcu7t5v0__inv_1
*I *188:I I *D gf180mcu_fd_sc_mcu7t5v0__inv_1
*I *191:ZN O *D gf180mcu_fd_sc_mcu7t5v0__inv_1
*I *192:I I *D gf180mcu_fd_sc_mcu7t5v0__inv_1
*I *197:ZN O *D gf180mcu_fd_sc_mcu7t5v0__inv_1
*CAP
1 nbus 0.000383582
2 *149:I 2.71712e-05
3 *145:I 0.000104232
4 *143:I 0
5 *147:I 0
6 *195:ZN 7.93796e-05
7 *163:ZN 1.81916e-05
8 *161:ZN 1.9241e-05
9 *161:I 1.50435e-05
10 *163:I 0
11 *183:I 1.8034e-05
12 *183:ZN 0
13 *159:ZN 0
14 *159:I 0
15 *185:ZN 0
16 *185:I 2.31631e-06
17 *186:I 0
18 *190:I 0
19 *196:I 9.8085e-05
20 *189:ZN 0
21 *179:ZN 1.75021e-05
22 *179:I 0
23 *155:ZN 2.0058e-05
24 *155:I 0
25 *157:ZN 0
26 *157:I 0
27 *194:I 0
28 *173:I 2.26932e-05
29 *173:ZN 0
30 *171:ZN 0
31 *171:I 0
32 *177:ZN 0
33 *177:I 1.52401e-06
34 *169:ZN 0
35 *169:I 2.59936e-05
36 *175:I 1.79779e-05
37 *175:ZN 0
38 *165:ZN 0
39 *165:I 2.46429e-05
40 *167:ZN 0
41 *167:I 1.56322e-05
42 *181:ZN 0
43 *181:I 2.3609e-05
44 *187:ZN 0
45 *193:ZN 0.000140562
46 *188:I 2.97635e-05
47 *191:ZN 0
48 *192:I 8.43888e-05
49 *197:ZN 0
50 *1:358 0.000214991
51 *1:349 0.000342703
52 *1:342 0.000493175
53 *1:333 0.000408588
54 *1:313 0.000109726
55 *1:307 0.000192531
56 *1:293 5.28027e-05
57 *1:287 0.000156261
58 *1:281 0.000152298
59 *1:273 0.00015202
60 *1:265 0.000101216
61 *1:258 7.65818e-05
62 *1:256 0.000175224
63 *1:238 0.000166619
64 *1:234 0.000134256
65 *1:231 0.000239719
66 *1:209 0.000104889
67 *1:203 9.00777e-05
68 *1:201 8.10715e-05
69 *1:193 8.51038e-05
70 *1:187 0.00010691
71 *1:180 8.01292e-05
72 *1:178 0.000142209
73 *1:164 6.47182e-05
74 *1:158 6.462e-05
75 *1:152 0.000127814
76 *1:144 0.000129558
77 *1:136 5.61277e-05
78 *1:125 5.62585e-05
79 *1:102 0.000422032
80 *1:96 0.000112864
81 *1:90 0.000112601
82 *1:82 0.000148677
83 *1:74 0.000121679
84 *1:66 0.000113365
85 *1:55 0.000256898
86 *1:51 0.000200393
87 *1:50 0.000185541
88 *1:31 0.000258557
89 *1:20 9.4914e-05
90 *1:7 0.000185836
91 *1:4 0.000138876
92 *145:I *2:103 7.36509e-05
93 *145:I *4:21 0.000225008
94 *145:I *4:29 6.26544e-05
95 *149:I *138:I 6.90477e-06
96 *192:I *188:ZN 5.29366e-05
97 *192:I *7:34 0.000327337
98 *192:I *7:43 0.000184127
99 *193:ZN *188:ZN 0.000531923
100 *193:ZN *189:I 0.000144233
101 *193:ZN *194:ZN 6.13757e-05
102 *193:ZN *7:322 0
103 *195:ZN *7:324 0.00014321
104 *195:ZN *7:340 6.13757e-05
105 *195:ZN *7:348 2.45503e-05
106 *196:I *186:ZN 0
107 *196:I *7:7 0
108 *196:I *7:97 0
109 *196:I *7:322 0.000184127
110 *1:7 *7:43 0.000613757
111 *1:20 *7:50 0.000145026
112 *1:31 *7:50 8.28929e-05
113 *1:31 *7:57 6.21697e-05
114 *1:50 *194:ZN 8.5926e-05
115 *1:55 *7:43 0
116 *1:55 *7:50 0
117 *1:178 *7:57 0
118 *1:231 *190:ZN 0
119 *1:231 *7:57 0
120 *1:234 *194:ZN 0.000204586
121 *1:234 *7:324 7.59278e-05
122 *1:238 *194:ZN 6.13757e-05
123 *1:238 *7:322 2.45503e-05
124 *1:238 *7:324 3.06879e-06
125 *1:265 *186:ZN 1.22751e-05
126 *1:265 *7:348 2.14815e-05
127 *1:273 *186:ZN 0
128 *1:281 *176:I 1.38095e-05
129 *1:281 *7:348 6.90477e-06
130 *1:313 *168:I 3.06879e-06
131 *1:333 *7:333 6.21697e-05
132 *1:342 *7:217 2.09823e-05
133 *1:342 *7:333 7.46036e-05
134 *1:342 *7:364 0.000136751
135 *1:349 *147:ZN 6.52672e-05
136 *1:349 *4:32 4.04048e-05
137 *1:349 *7:217 4.89586e-05
138 *1:349 *7:234 2.79764e-05
139 *1:349 *7:265 8.39291e-05
140 *1:358 *4:26 0.000111883
*RES
1 *197:ZN *1:4 4.5 
2 *1:4 *1:7 1.8 
3 *1:7 *192:I 6.21 
4 *1:7 *191:ZN 4.5 
5 *1:4 *1:20 5.13 
6 *1:20 *188:I 10.53 
7 *1:20 *1:31 5.13 
8 *1:31 *193:ZN 8.1 
9 *1:31 *187:ZN 4.5 
10 *1:31 *1:50 5.67 
11 *1:50 *1:51 0.63 
12 *1:51 *1:55 5.67 
13 *1:55 *181:I 4.77 
14 *1:55 *181:ZN 4.5 
15 *1:55 *1:66 0.81 
16 *1:66 *167:I 4.77 
17 *1:66 *1:74 0.27 
18 *1:74 *167:ZN 4.5 
19 *1:74 *1:82 1.62 
20 *1:82 *165:I 4.95 
21 *1:82 *1:90 0.27 
22 *1:90 *165:ZN 4.5 
23 *1:90 *1:96 1.35 
24 *1:96 *175:ZN 4.5 
25 *1:96 *1:102 0.27 
26 *1:102 *175:I 4.77 
27 *1:102 nbus 8.685 
28 *1:51 *1:125 4.5 
29 *1:125 *169:I 4.77 
30 *1:125 *169:ZN 4.5 
31 *1:125 *1:136 0.81 
32 *1:136 *177:I 4.77 
33 *1:136 *1:144 0.27 
34 *1:144 *177:ZN 4.5 
35 *1:144 *1:152 1.98 
36 *1:152 *171:I 4.5 
37 *1:152 *1:158 0.27 
38 *1:158 *171:ZN 4.5 
39 *1:158 *1:164 0.99 
40 *1:164 *173:ZN 4.5 
41 *1:164 *173:I 5.04 
42 *1:50 *1:178 0.45 
43 *1:178 *1:180 4.5 
44 *1:180 *194:I 4.5 
45 *1:180 *1:187 1.26 
46 *1:187 *157:I 4.5 
47 *1:187 *1:193 0.27 
48 *1:193 *157:ZN 4.5 
49 *1:193 *1:201 1.44 
50 *1:201 *1:203 0.45 
51 *1:203 *1:209 1.71 
52 *1:209 *155:I 4.5 
53 *1:209 *155:ZN 4.77 
54 *1:203 *179:I 4.5 
55 *1:201 *179:ZN 4.77 
56 *1:178 *1:231 0.63 
57 *1:231 *1:234 6.03 
58 *1:234 *1:238 1.26 
59 *1:238 *189:ZN 4.5 
60 *1:238 *196:I 5.76 
61 *1:234 *190:I 4.5 
62 *1:231 *1:256 0.63 
63 *1:256 *1:258 4.5 
64 *1:258 *186:I 4.5 
65 *1:258 *1:265 1.08 
66 *1:265 *185:I 4.77 
67 *1:265 *1:273 0.27 
68 *1:273 *185:ZN 4.5 
69 *1:273 *1:281 1.98 
70 *1:281 *159:I 4.5 
71 *1:281 *1:287 0.27 
72 *1:287 *159:ZN 4.5 
73 *1:287 *1:293 0.99 
74 *1:293 *183:ZN 4.5 
75 *1:293 *183:I 5.04 
76 *1:287 *1:307 0.99 
77 *1:307 *163:I 4.5 
78 *1:307 *1:313 0.99 
79 *1:313 *161:I 4.77 
80 *1:313 *161:ZN 4.77 
81 *1:307 *163:ZN 4.77 
82 *1:256 *1:333 0.81 
83 *1:333 *195:ZN 10.17 
84 *1:333 *1:342 2.61 
85 *1:342 *147:I 9 
86 *1:342 *1:349 3.15 
87 *1:349 *143:I 9 
88 *1:349 *1:358 5.49 
89 *1:358 *145:I 6.03 
90 *1:358 *149:I 4.77 
*END

*D_NET *2 0.0089551
*CONN
*P outn I
*I *153:I I *D gf180mcu_fd_sc_mcu7t5v0__inv_1
*I *131:I I *D gf180mcu_fd_sc_mcu7t5v0__inv_1
*I *136:ZN O *D gf180mcu_fd_sc_mcu7t5v0__inv_1
*I *136:I I *D gf180mcu_fd_sc_mcu7t5v0__inv_1
*I *138:I I *D gf180mcu_fd_sc_mcu7t5v0__inv_1
*I *138:ZN O *D gf180mcu_fd_sc_mcu7t5v0__inv_1
*I *134:I I *D gf180mcu_fd_sc_mcu7t5v0__inv_1
*I *134:ZN O *D gf180mcu_fd_sc_mcu7t5v0__inv_1
*I *142:ZN O *D gf180mcu_fd_sc_mcu7t5v0__inv_1
*I *144:ZN O *D gf180mcu_fd_sc_mcu7t5v0__inv_1
*I *140:ZN O *D gf180mcu_fd_sc_mcu7t5v0__inv_1
*I *148:ZN O *D gf180mcu_fd_sc_mcu7t5v0__inv_1
*I *151:I I *D gf180mcu_fd_sc_mcu7t5v0__inv_1
*I *150:ZN O *D gf180mcu_fd_sc_mcu7t5v0__inv_1
*I *146:ZN O *D gf180mcu_fd_sc_mcu7t5v0__inv_1
*I *140:I I *D gf180mcu_fd_sc_mcu7t5v0__inv_1
*I *152:ZN O *D gf180mcu_fd_sc_mcu7t5v0__inv_1
*CAP
1 outn 0.000197149
2 *153:I 0.000234981
3 *131:I 2.67812e-05
4 *136:ZN 0
5 *136:I 4.11316e-05
6 *138:I 4.10447e-05
7 *138:ZN 0
8 *134:I 0
9 *134:ZN 0
10 *142:ZN 0
11 *144:ZN 3.03295e-05
12 *140:ZN 0
13 *148:ZN 0
14 *151:I 0.000151398
15 *150:ZN 4.46217e-05
16 *146:ZN 0.000203993
17 *140:I 4.39431e-05
18 *152:ZN 0
19 *2:133 0.000459595
20 *2:117 4.11316e-05
21 *2:103 0.000323324
22 *2:96 0.000376601
23 *2:95 0.000359781
24 *2:87 0.000118967
25 *2:79 0.000121517
26 *2:30 0.000288412
27 *2:28 0.000231592
28 *2:25 8.91224e-05
29 *2:21 5.69203e-05
30 *2:12 0.000186523
31 *2:8 0.000229449
32 *2:6 0.000311963
33 *2:5 0.000444378
34 *2:4 7.01769e-05
35 *131:I outxor 0
36 *131:I *132:I 0
37 *136:I *4:125 2.07143e-05
38 *138:I *4:11 6.13757e-06
39 *140:I *142:I 6.13757e-06
40 *140:I *150:I 9.20636e-06
41 *144:ZN *142:I 0.000552382
42 *146:ZN *7:182 0.000360584
43 *150:ZN *150:I 6.13757e-05
44 *150:ZN *4:70 1.84127e-05
45 *151:I *137:I 2.07143e-05
46 *151:I *142:I 0
47 *151:I *4:52 6.21183e-05
48 *151:I *4:70 0
49 *151:I *7:192 0
50 *153:I outxor 0.000203563
51 *153:I *133:A1 1.38095e-05
52 *153:I *3:9 0.000147302
53 *153:I *4:11 0
54 *2:12 *7:192 0
55 *2:21 *150:I 3.06879e-06
56 *2:28 *7:182 3.73018e-05
57 *2:28 *7:192 2.48679e-05
58 *2:30 *7:182 6.21697e-05
59 *2:79 *4:125 0.000184127
60 *2:87 *132:I 0
61 *2:87 *4:125 6.13758e-05
62 *2:95 *4:125 0.000675133
63 *2:96 *4:122 0.000186509
64 *2:103 *4:11 0.000172619
65 *2:103 *4:14 0.000227955
66 *2:103 *4:21 0.000675133
67 *2:103 *4:122 8.28559e-05
68 *2:133 outpn 0
69 *2:133 *4:11 0
70 *2:133 *4:125 4.91006e-05
71 *2:133 *5:8 0.000225045
72 *145:I *2:103 7.36509e-05
73 *149:I *138:I 6.90477e-06
*RES
1 *152:ZN *2:4 4.5 
2 *2:4 *2:5 4.5 
3 *2:5 *2:6 2.25 
4 *2:6 *2:8 0.45 
5 *2:8 *2:12 5.49 
6 *2:12 *140:I 5.04 
7 *2:12 *2:21 0.27 
8 *2:21 *2:25 0.9 
9 *2:25 *2:28 4.95 
10 *2:28 *2:30 0.45 
11 *2:30 *146:ZN 11.61 
12 *2:30 *150:ZN 9.63 
13 *2:28 *151:I 10.53 
14 *2:25 *148:ZN 4.5 
15 *2:21 *140:ZN 4.5 
16 *2:8 *144:ZN 9.81 
17 *2:6 *142:ZN 9 
18 *2:5 outn 1.845 
19 *2:4 *2:79 0.81 
20 *2:79 *134:ZN 4.5 
21 *2:79 *2:87 0.72 
22 *2:87 *134:I 4.5 
23 *2:87 *2:95 5.49 
24 *2:95 *2:96 0.99 
25 *2:96 *2:103 8.73 
26 *2:103 *138:ZN 4.5 
27 *2:103 *138:I 5.04 
28 *2:96 *2:117 4.5 
29 *2:117 *136:I 5.04 
30 *2:117 *136:ZN 4.5 
31 *2:95 *2:133 6.66 
32 *2:133 *131:I 4.77 
33 *2:133 *153:I 7.38 
*END

*D_NET *3 0.00312813
*CONN
*P outnn O
*I *133:A2 I *D gf180mcu_fd_sc_mcu7t5v0__xor2_1
*I *131:ZN O *D gf180mcu_fd_sc_mcu7t5v0__inv_1
*CAP
1 outnn 0.00041983
2 *133:A2 0
3 *131:ZN 8.51587e-05
4 *3:9 0.000504989
5 outnn outxor 0.00159577
6 outnn *4:11 6.21429e-05
7 *3:9 outxor 8.49031e-05
8 *3:9 *132:I 0
9 *3:9 *133:A1 0.000224971
10 *3:9 *4:11 3.06879e-06
11 *153:I *3:9 0.000147302
*RES
1 *131:ZN *3:9 6.21 
2 *3:9 *133:A2 4.5 
3 *3:9 outnn 9.495 
*END

*D_NET *4 0.0088658
*CONN
*P outp I
*I *132:I I *D gf180mcu_fd_sc_mcu7t5v0__inv_1
*I *152:I I *D gf180mcu_fd_sc_mcu7t5v0__inv_1
*I *149:ZN O *D gf180mcu_fd_sc_mcu7t5v0__inv_1
*I *143:ZN O *D gf180mcu_fd_sc_mcu7t5v0__inv_1
*I *151:ZN O *D gf180mcu_fd_sc_mcu7t5v0__inv_1
*I *135:ZN O *D gf180mcu_fd_sc_mcu7t5v0__inv_1
*I *137:ZN O *D gf180mcu_fd_sc_mcu7t5v0__inv_1
*I *137:I I *D gf180mcu_fd_sc_mcu7t5v0__inv_1
*I *150:I I *D gf180mcu_fd_sc_mcu7t5v0__inv_1
*I *141:I I *D gf180mcu_fd_sc_mcu7t5v0__inv_1
*I *141:ZN O *D gf180mcu_fd_sc_mcu7t5v0__inv_1
*I *139:ZN O *D gf180mcu_fd_sc_mcu7t5v0__inv_1
*I *139:I I *D gf180mcu_fd_sc_mcu7t5v0__inv_1
*I *135:I I *D gf180mcu_fd_sc_mcu7t5v0__inv_1
*I *147:ZN O *D gf180mcu_fd_sc_mcu7t5v0__inv_1
*I *145:ZN O *D gf180mcu_fd_sc_mcu7t5v0__inv_1
*I *153:ZN O *D gf180mcu_fd_sc_mcu7t5v0__inv_1
*CAP
1 outp 0.000564642
2 *132:I 4.46354e-05
3 *152:I 0
4 *149:ZN 0
5 *143:ZN 0
6 *151:ZN 0
7 *135:ZN 0
8 *137:ZN 1.60929e-05
9 *137:I 9.5136e-06
10 *150:I 0.000108165
11 *141:I 6.63e-05
12 *141:ZN 0
13 *139:ZN 0
14 *139:I 4.70532e-05
15 *135:I 1.9241e-05
16 *147:ZN 0.000246544
17 *145:ZN 0
18 *153:ZN 0.000458169
19 *4:125 0.000803042
20 *4:122 0.00038456
21 *4:70 0.000305488
22 *4:56 7.38344e-05
23 *4:54 0.000187858
24 *4:52 0.000158525
25 *4:44 0.000169049
26 *4:43 4.69425e-05
27 *4:32 0.000365116
28 *4:29 0.000210497
29 *4:26 0.000207096
30 *4:21 0.000178745
31 *4:14 0.000174455
32 *4:11 0.000670574
33 *139:I *7:206 0
34 *141:I *7:171 0
35 *141:I *7:173 0
36 *147:ZN *7:182 0
37 *147:ZN *7:212 0.00014321
38 *4:11 *133:A1 0.000116358
39 *4:11 *5:8 0
40 *4:14 *7:192 3.10849e-06
41 *4:21 *142:I 0
42 *4:32 *7:182 0
43 *4:32 *7:192 0
44 *4:70 *7:173 0
45 *4:70 *7:179 0
46 *4:122 *133:A1 0
47 outnn *4:11 6.21429e-05
48 *131:I *132:I 0
49 *136:I *4:125 2.07143e-05
50 *138:I *4:11 6.13757e-06
51 *140:I *150:I 9.20636e-06
52 *145:I *4:21 0.000225008
53 *145:I *4:29 6.26544e-05
54 *150:ZN *150:I 6.13757e-05
55 *150:ZN *4:70 1.84127e-05
56 *151:I *137:I 2.07143e-05
57 *151:I *4:52 6.21183e-05
58 *151:I *4:70 0
59 *153:I *4:11 0
60 *1:349 *147:ZN 6.52672e-05
61 *1:349 *4:32 4.04048e-05
62 *1:358 *4:26 0.000111883
63 *2:21 *150:I 3.06879e-06
64 *2:79 *4:125 0.000184127
65 *2:87 *132:I 0
66 *2:87 *4:125 6.13758e-05
67 *2:95 *4:125 0.000675133
68 *2:96 *4:122 0.000186509
69 *2:103 *4:11 0.000172619
70 *2:103 *4:14 0.000227955
71 *2:103 *4:21 0.000675133
72 *2:103 *4:122 8.28559e-05
73 *2:133 *4:11 0
74 *2:133 *4:125 4.91006e-05
75 *3:9 *132:I 0
76 *3:9 *4:11 3.06879e-06
*RES
1 *153:ZN *4:11 22.86 
2 *4:11 *4:14 5.85 
3 *4:14 *145:ZN 4.5 
4 *4:14 *4:21 1.26 
5 *4:21 *4:26 10.17 
6 *4:26 *4:29 0.9 
7 *4:29 *4:32 5.67 
8 *4:32 *147:ZN 11.52 
9 *4:32 *4:43 4.5 
10 *4:43 *4:44 0.45 
11 *4:44 *135:I 4.77 
12 *4:44 *4:52 0.99 
13 *4:52 *4:54 0.63 
14 *4:54 *4:56 0.45 
15 *4:56 *139:I 5.04 
16 *4:56 *139:ZN 4.5 
17 *4:54 *4:70 1.35 
18 *4:70 *141:ZN 4.5 
19 *4:70 *141:I 5.22 
20 *4:70 *150:I 5.94 
21 *4:52 *137:I 4.77 
22 *4:52 *137:ZN 4.77 
23 *4:43 *135:ZN 4.5 
24 *4:29 *151:ZN 4.5 
25 *4:26 *143:ZN 4.5 
26 *4:21 *149:ZN 4.5 
27 *4:11 *4:122 5.67 
28 *4:122 *4:125 3.06 
29 *4:125 outp 10.035 
30 *4:125 *152:I 4.5 
31 *4:122 *132:I 4.95 
*END

*D_NET *5 0.00149293
*CONN
*P outpn O
*I *133:A1 I *D gf180mcu_fd_sc_mcu7t5v0__xor2_1
*I *132:ZN O *D gf180mcu_fd_sc_mcu7t5v0__inv_1
*CAP
1 outpn 0.000215998
2 *133:A1 0.00013715
3 *132:ZN 0.000103227
4 *5:8 0.000456374
5 *153:I *133:A1 1.38095e-05
6 *2:133 outpn 0
7 *2:133 *5:8 0.000225045
8 *3:9 *133:A1 0.000224971
9 *4:11 *133:A1 0.000116358
10 *4:11 *5:8 0
11 *4:122 *133:A1 0
*RES
1 *132:ZN *5:8 10.26 
2 *5:8 *133:A1 10.8 
3 *5:8 outpn 2.025 
*END

*D_NET *6 0.00348528
*CONN
*P outxor O
*I *133:Z O *D gf180mcu_fd_sc_mcu7t5v0__xor2_1
*CAP
1 outxor 0.000800522
2 *133:Z 0.000800522
3 outnn outxor 0.00159577
4 *131:I outxor 0
5 *153:I outxor 0.000203563
6 *3:9 outxor 8.49031e-05
*RES
1 *133:Z outxor 18.225 
*END

*D_NET *7 0.0144171
*CONN
*P pbus I
*I *195:I I *D gf180mcu_fd_sc_mcu7t5v0__inv_1
*I *166:ZN O *D gf180mcu_fd_sc_mcu7t5v0__inv_1
*I *166:I I *D gf180mcu_fd_sc_mcu7t5v0__inv_1
*I *176:ZN O *D gf180mcu_fd_sc_mcu7t5v0__inv_1
*I *176:I I *D gf180mcu_fd_sc_mcu7t5v0__inv_1
*I *160:I I *D gf180mcu_fd_sc_mcu7t5v0__inv_1
*I *160:ZN O *D gf180mcu_fd_sc_mcu7t5v0__inv_1
*I *186:ZN O *D gf180mcu_fd_sc_mcu7t5v0__inv_1
*I *170:ZN O *D gf180mcu_fd_sc_mcu7t5v0__inv_1
*I *170:I I *D gf180mcu_fd_sc_mcu7t5v0__inv_1
*I *158:ZN O *D gf180mcu_fd_sc_mcu7t5v0__inv_1
*I *164:ZN O *D gf180mcu_fd_sc_mcu7t5v0__inv_1
*I *184:ZN O *D gf180mcu_fd_sc_mcu7t5v0__inv_1
*I *184:I I *D gf180mcu_fd_sc_mcu7t5v0__inv_1
*I *168:I I *D gf180mcu_fd_sc_mcu7t5v0__inv_1
*I *168:ZN O *D gf180mcu_fd_sc_mcu7t5v0__inv_1
*I *154:ZN O *D gf180mcu_fd_sc_mcu7t5v0__inv_1
*I *154:I I *D gf180mcu_fd_sc_mcu7t5v0__inv_1
*I *180:I I *D gf180mcu_fd_sc_mcu7t5v0__inv_1
*I *180:ZN O *D gf180mcu_fd_sc_mcu7t5v0__inv_1
*I *156:ZN O *D gf180mcu_fd_sc_mcu7t5v0__inv_1
*I *156:I I *D gf180mcu_fd_sc_mcu7t5v0__inv_1
*I *182:I I *D gf180mcu_fd_sc_mcu7t5v0__inv_1
*I *182:ZN O *D gf180mcu_fd_sc_mcu7t5v0__inv_1
*I *164:I I *D gf180mcu_fd_sc_mcu7t5v0__inv_1
*I *142:I I *D gf180mcu_fd_sc_mcu7t5v0__inv_1
*I *144:I I *D gf180mcu_fd_sc_mcu7t5v0__inv_1
*I *148:I I *D gf180mcu_fd_sc_mcu7t5v0__inv_1
*I *146:I I *D gf180mcu_fd_sc_mcu7t5v0__inv_1
*I *158:I I *D gf180mcu_fd_sc_mcu7t5v0__inv_1
*I *174:I I *D gf180mcu_fd_sc_mcu7t5v0__inv_1
*I *174:ZN O *D gf180mcu_fd_sc_mcu7t5v0__inv_1
*I *178:ZN O *D gf180mcu_fd_sc_mcu7t5v0__inv_1
*I *178:I I *D gf180mcu_fd_sc_mcu7t5v0__inv_1
*I *172:ZN O *D gf180mcu_fd_sc_mcu7t5v0__inv_1
*I *172:I I *D gf180mcu_fd_sc_mcu7t5v0__inv_1
*I *162:ZN O *D gf180mcu_fd_sc_mcu7t5v0__inv_1
*I *189:I I *D gf180mcu_fd_sc_mcu7t5v0__inv_1
*I *162:I I *D gf180mcu_fd_sc_mcu7t5v0__inv_1
*I *188:ZN O *D gf180mcu_fd_sc_mcu7t5v0__inv_1
*I *193:I I *D gf180mcu_fd_sc_mcu7t5v0__inv_1
*I *192:ZN O *D gf180mcu_fd_sc_mcu7t5v0__inv_1
*I *190:ZN O *D gf180mcu_fd_sc_mcu7t5v0__inv_1
*I *194:ZN O *D gf180mcu_fd_sc_mcu7t5v0__inv_1
*I *187:I I *D gf180mcu_fd_sc_mcu7t5v0__inv_1
*I *197:I I *D gf180mcu_fd_sc_mcu7t5v0__inv_1
*I *191:I I *D gf180mcu_fd_sc_mcu7t5v0__inv_1
*I *196:ZN O *D gf180mcu_fd_sc_mcu7t5v0__inv_1
*CAP
1 pbus 0.000281572
2 *195:I 2.53858e-05
3 *166:ZN 2.67812e-05
4 *166:I 1.46455e-05
5 *176:ZN 2.61218e-05
6 *176:I 1.06173e-05
7 *160:I 2.4469e-05
8 *160:ZN 0
9 *186:ZN 1.88784e-05
10 *170:ZN 0
11 *170:I 0
12 *158:ZN 2.84341e-05
13 *164:ZN 2.84341e-05
14 *184:ZN 2.44356e-05
15 *184:I 0
16 *168:I 5.02044e-05
17 *168:ZN 0
18 *154:ZN 3.0087e-05
19 *154:I 0
20 *180:I 0
21 *180:ZN 1.33906e-05
22 *156:ZN 2.3609e-05
23 *156:I 0
24 *182:I 4.90989e-05
25 *182:ZN 0
26 *164:I 0
27 *142:I 0.000162009
28 *144:I 0
29 *148:I 0
30 *146:I 0
31 *158:I 0
32 *174:I 0
33 *174:ZN 2.04721e-05
34 *178:ZN 3.0087e-05
35 *178:I 0
36 *172:ZN 0
37 *172:I 2.54002e-06
38 *162:ZN 0
39 *189:I 0.000100448
40 *162:I 0
41 *188:ZN 8.08197e-05
42 *193:I 0
43 *192:ZN 0
44 *190:ZN 0.000112057
45 *194:ZN 4.14357e-05
46 *187:I 0
47 *197:I 0
48 *191:I 0
49 *196:ZN 0
50 *7:364 0.000135989
51 *7:348 0.000110831
52 *7:340 0.000111793
53 *7:335 1.32328e-05
54 *7:333 0.000180167
55 *7:324 0.000181512
56 *7:322 0.000189573
57 *7:278 0.000197447
58 *7:265 0.000117547
59 *7:241 0.000112324
60 *7:237 0.000119917
61 *7:236 1.78117e-05
62 *7:234 0.000127038
63 *7:220 0.000131568
64 *7:217 0.000207087
65 *7:214 0.000241898
66 *7:212 0.000220996
67 *7:206 0.000311786
68 *7:192 0.00031688
69 *7:182 0.000447234
70 *7:179 0.000409363
71 *7:173 0.000135756
72 *7:171 0.000207042
73 *7:166 0.000306705
74 *7:138 0.000121837
75 *7:130 0.000107906
76 *7:122 0.000129262
77 *7:116 0.000148323
78 *7:113 0.000393541
79 *7:97 0.000127229
80 *7:95 4.24687e-05
81 *7:79 0.000113425
82 *7:57 0.00023659
83 *7:50 0.000182574
84 *7:43 0.000247902
85 *7:34 0.000309664
86 *7:28 0.00018653
87 *7:18 0.000437218
88 *7:14 0.000301175
89 *7:12 0.000286719
90 *7:11 0.00027346
91 *7:7 3.4428e-05
92 *7:5 6.09045e-05
93 *7:4 0.000121281
94 *139:I *7:206 0
95 *140:I *142:I 6.13757e-06
96 *141:I *7:171 0
97 *141:I *7:173 0
98 *144:ZN *142:I 0.000552382
99 *146:ZN *7:182 0.000360584
100 *147:ZN *7:182 0
101 *147:ZN *7:212 0.00014321
102 *151:I *142:I 0
103 *151:I *7:192 0
104 *192:I *188:ZN 5.29366e-05
105 *192:I *7:34 0.000327337
106 *192:I *7:43 0.000184127
107 *193:ZN *188:ZN 0.000531923
108 *193:ZN *189:I 0.000144233
109 *193:ZN *194:ZN 6.13757e-05
110 *193:ZN *7:322 0
111 *195:ZN *7:324 0.00014321
112 *195:ZN *7:340 6.13757e-05
113 *195:ZN *7:348 2.45503e-05
114 *196:I *186:ZN 0
115 *196:I *7:7 0
116 *196:I *7:97 0
117 *196:I *7:322 0.000184127
118 *1:7 *7:43 0.000613757
119 *1:20 *7:50 0.000145026
120 *1:31 *7:50 8.28929e-05
121 *1:31 *7:57 6.21697e-05
122 *1:50 *194:ZN 8.5926e-05
123 *1:55 *7:43 0
124 *1:55 *7:50 0
125 *1:178 *7:57 0
126 *1:231 *190:ZN 0
127 *1:231 *7:57 0
128 *1:234 *194:ZN 0.000204586
129 *1:234 *7:324 7.59278e-05
130 *1:238 *194:ZN 6.13757e-05
131 *1:238 *7:322 2.45503e-05
132 *1:238 *7:324 3.06879e-06
133 *1:265 *186:ZN 1.22751e-05
134 *1:265 *7:348 2.14815e-05
135 *1:273 *186:ZN 0
136 *1:281 *176:I 1.38095e-05
137 *1:281 *7:348 6.90477e-06
138 *1:313 *168:I 3.06879e-06
139 *1:333 *7:333 6.21697e-05
140 *1:342 *7:217 2.09823e-05
141 *1:342 *7:333 7.46036e-05
142 *1:342 *7:364 0.000136751
143 *1:349 *7:217 4.89586e-05
144 *1:349 *7:234 2.79764e-05
145 *1:349 *7:265 8.39291e-05
146 *2:12 *7:192 0
147 *2:28 *7:182 3.73018e-05
148 *2:28 *7:192 2.48679e-05
149 *2:30 *7:182 6.21697e-05
150 *4:14 *7:192 3.10849e-06
151 *4:21 *142:I 0
152 *4:32 *7:182 0
153 *4:32 *7:192 0
154 *4:70 *7:173 0
155 *4:70 *7:179 0
*RES
1 *196:ZN *7:4 4.5 
2 *7:4 *7:5 1.17 
3 *7:5 *7:7 0.27 
4 *7:7 *7:11 4.77 
5 *7:11 *7:12 0.99 
6 *7:12 *7:14 1.35 
7 *7:14 *7:18 5.67 
8 *7:18 pbus 7.155 
9 *7:18 *7:28 0.27 
10 *7:28 *7:34 2.25 
11 *7:34 *191:I 4.5 
12 *7:34 *7:43 6.12 
13 *7:43 *197:I 9 
14 *7:43 *7:50 1.17 
15 *7:50 *187:I 9 
16 *7:50 *7:57 0.81 
17 *7:57 *194:ZN 9.99 
18 *7:57 *190:ZN 9.63 
19 *7:28 *192:ZN 4.5 
20 *7:14 *7:79 4.77 
21 *7:79 *193:I 4.5 
22 *7:79 *188:ZN 6.03 
23 *7:12 *7:95 4.77 
24 *7:95 *7:97 0.27 
25 *7:97 *162:I 4.5 
26 *7:97 *189:I 6.03 
27 *7:95 *162:ZN 4.5 
28 *7:11 *7:113 1.17 
29 *7:113 *7:116 4.77 
30 *7:116 *7:122 1.71 
31 *7:122 *172:I 4.95 
32 *7:122 *7:130 0.27 
33 *7:130 *172:ZN 4.5 
34 *7:130 *7:138 1.8 
35 *7:138 *178:I 4.5 
36 *7:138 *178:ZN 4.77 
37 *7:116 *174:ZN 4.77 
38 *7:116 *174:I 4.5 
39 *7:113 *7:166 6.75 
40 *7:166 *158:I 4.5 
41 *7:166 *7:171 0.63 
42 *7:171 *7:173 0.99 
43 *7:173 *146:I 4.5 
44 *7:173 *7:179 0.27 
45 *7:179 *7:182 7.83 
46 *7:182 *148:I 9 
47 *7:182 *7:192 5.94 
48 *7:192 *144:I 4.5 
49 *7:192 *142:I 6.3 
50 *7:179 *7:206 0.99 
51 *7:206 *164:I 4.5 
52 *7:206 *7:212 2.43 
53 *7:212 *7:214 0.27 
54 *7:214 *7:217 5.31 
55 *7:217 *7:220 5.67 
56 *7:220 *182:ZN 4.5 
57 *7:220 *182:I 5.22 
58 *7:217 *7:234 0.45 
59 *7:234 *7:236 4.5 
60 *7:236 *7:237 0.27 
61 *7:237 *7:241 1.08 
62 *7:241 *156:I 4.5 
63 *7:241 *156:ZN 4.77 
64 *7:237 *180:ZN 4.77 
65 *7:236 *180:I 4.5 
66 *7:234 *7:265 5.67 
67 *7:265 *154:I 4.5 
68 *7:265 *154:ZN 4.77 
69 *7:214 *7:278 1.62 
70 *7:278 *168:ZN 4.5 
71 *7:278 *168:I 5.22 
72 *7:214 *184:I 4.5 
73 *7:212 *184:ZN 4.77 
74 *7:206 *164:ZN 4.77 
75 *7:171 *158:ZN 4.77 
76 *7:7 *170:I 4.5 
77 *7:5 *170:ZN 4.5 
78 *7:4 *7:322 1.53 
79 *7:322 *7:324 1.17 
80 *7:324 *186:ZN 4.77 
81 *7:324 *7:333 5.49 
82 *7:333 *7:335 4.5 
83 *7:335 *160:ZN 4.5 
84 *7:335 *7:340 0.45 
85 *7:340 *160:I 4.77 
86 *7:340 *7:348 0.99 
87 *7:348 *176:I 4.77 
88 *7:348 *176:ZN 4.77 
89 *7:333 *7:364 5.49 
90 *7:364 *166:I 4.95 
91 *7:364 *166:ZN 4.77 
92 *7:322 *195:I 4.77 
*END
