*SPEF "ieee 1481-1999"
*DESIGN "ringosc"
*DATE "11:11:11 Fri 11 11, 1111"
*VENDOR "OpenRCX"
*PROGRAM "Parallel Extraction"
*VERSION "1.0"
*DESIGN_FLOW "NAME_SCOPE LOCAL" "PIN_CAP NONE"
*DIVIDER /
*DELIMITER :
*BUS_DELIMITER []
*T_UNIT 1 NS
*C_UNIT 1 PF
*R_UNIT 1 OHM
*L_UNIT 1 HENRY

*NAME_MAP
*1 Y
*4 con\[0\]
*5 con\[100\]
*6 con\[101\]
*7 con\[102\]
*8 con\[103\]
*9 con\[104\]
*10 con\[105\]
*11 con\[106\]
*12 con\[107\]
*13 con\[108\]
*14 con\[109\]
*15 con\[10\]
*16 con\[110\]
*17 con\[111\]
*18 con\[112\]
*19 con\[113\]
*20 con\[114\]
*21 con\[115\]
*22 con\[116\]
*23 con\[117\]
*24 con\[118\]
*25 con\[119\]
*26 con\[11\]
*27 con\[120\]
*28 con\[121\]
*29 con\[122\]
*30 con\[123\]
*31 con\[124\]
*32 con\[125\]
*33 con\[126\]
*34 con\[12\]
*35 con\[13\]
*36 con\[14\]
*37 con\[15\]
*38 con\[16\]
*39 con\[17\]
*40 con\[18\]
*41 con\[19\]
*42 con\[1\]
*43 con\[20\]
*44 con\[21\]
*45 con\[22\]
*46 con\[23\]
*47 con\[24\]
*48 con\[25\]
*49 con\[26\]
*50 con\[27\]
*51 con\[28\]
*52 con\[29\]
*53 con\[2\]
*54 con\[30\]
*55 con\[31\]
*56 con\[32\]
*57 con\[33\]
*58 con\[34\]
*59 con\[35\]
*60 con\[36\]
*61 con\[37\]
*62 con\[38\]
*63 con\[39\]
*64 con\[3\]
*65 con\[40\]
*66 con\[41\]
*67 con\[42\]
*68 con\[43\]
*69 con\[44\]
*70 con\[45\]
*71 con\[46\]
*72 con\[47\]
*73 con\[48\]
*74 con\[49\]
*75 con\[4\]
*76 con\[50\]
*77 con\[51\]
*78 con\[52\]
*79 con\[53\]
*80 con\[54\]
*81 con\[55\]
*82 con\[56\]
*83 con\[57\]
*84 con\[58\]
*85 con\[59\]
*86 con\[5\]
*87 con\[60\]
*88 con\[61\]
*89 con\[62\]
*90 con\[63\]
*91 con\[64\]
*92 con\[65\]
*93 con\[66\]
*94 con\[67\]
*95 con\[68\]
*96 con\[69\]
*97 con\[6\]
*98 con\[70\]
*99 con\[71\]
*100 con\[72\]
*101 con\[73\]
*102 con\[74\]
*103 con\[75\]
*104 con\[76\]
*105 con\[77\]
*106 con\[78\]
*107 con\[79\]
*108 con\[7\]
*109 con\[80\]
*110 con\[81\]
*111 con\[82\]
*112 con\[83\]
*113 con\[84\]
*114 con\[85\]
*115 con\[86\]
*116 con\[87\]
*117 con\[88\]
*118 con\[89\]
*119 con\[8\]
*120 con\[90\]
*121 con\[91\]
*122 con\[92\]
*123 con\[93\]
*124 con\[94\]
*125 con\[95\]
*126 con\[96\]
*127 con\[97\]
*128 con\[98\]
*129 con\[99\]
*130 con\[9\]
*131 FILLER_0_15
*132 FILLER_0_2
*133 FILLER_0_21
*134 FILLER_0_27
*135 FILLER_0_33
*136 FILLER_0_37
*137 FILLER_0_4
*138 FILLER_0_41
*139 FILLER_0_47
*140 FILLER_0_53
*141 FILLER_0_59
*142 FILLER_0_65
*143 FILLER_0_69
*144 FILLER_0_72
*145 FILLER_0_77
*146 FILLER_0_83
*147 FILLER_0_89
*148 FILLER_0_9
*149 FILLER_0_95
*150 FILLER_10_10
*151 FILLER_10_16
*152 FILLER_10_2
*153 FILLER_10_22
*154 FILLER_10_28
*155 FILLER_10_34
*156 FILLER_10_37
*157 FILLER_10_45
*158 FILLER_10_51
*159 FILLER_10_55
*160 FILLER_10_61
*161 FILLER_10_67
*162 FILLER_11_10
*163 FILLER_11_16
*164 FILLER_11_2
*165 FILLER_11_22
*166 FILLER_11_28
*167 FILLER_11_34
*168 FILLER_11_37
*169 FILLER_11_43
*170 FILLER_11_49
*171 FILLER_11_55
*172 FILLER_11_61
*173 FILLER_11_67
*174 FILLER_11_69
*175 FILLER_11_72
*176 FILLER_11_88
*177 FILLER_11_96
*178 FILLER_11_98
*179 FILLER_1_11
*180 FILLER_1_17
*181 FILLER_1_2
*182 FILLER_1_21
*183 FILLER_1_26
*184 FILLER_1_32
*185 FILLER_1_38
*186 FILLER_1_44
*187 FILLER_1_50
*188 FILLER_1_54
*189 FILLER_1_56
*190 FILLER_1_6
*191 FILLER_1_61
*192 FILLER_1_67
*193 FILLER_1_73
*194 FILLER_1_78
*195 FILLER_1_84
*196 FILLER_1_90
*197 FILLER_1_96
*198 FILLER_1_98
*199 FILLER_2_12
*200 FILLER_2_18
*201 FILLER_2_2
*202 FILLER_2_24
*203 FILLER_2_28
*204 FILLER_2_33
*205 FILLER_2_37
*206 FILLER_2_42
*207 FILLER_2_48
*208 FILLER_2_54
*209 FILLER_2_60
*210 FILLER_2_66
*211 FILLER_2_72
*212 FILLER_2_78
*213 FILLER_2_8
*214 FILLER_2_84
*215 FILLER_2_90
*216 FILLER_2_96
*217 FILLER_2_98
*218 FILLER_3_14
*219 FILLER_3_2
*220 FILLER_3_20
*221 FILLER_3_26
*222 FILLER_3_32
*223 FILLER_3_40
*224 FILLER_3_46
*225 FILLER_3_52
*226 FILLER_3_58
*227 FILLER_3_64
*228 FILLER_3_70
*229 FILLER_3_73
*230 FILLER_3_78
*231 FILLER_3_8
*232 FILLER_3_84
*233 FILLER_3_92
*234 FILLER_3_96
*235 FILLER_3_98
*236 FILLER_4_10
*237 FILLER_4_16
*238 FILLER_4_2
*239 FILLER_4_22
*240 FILLER_4_30
*241 FILLER_4_34
*242 FILLER_4_37
*243 FILLER_4_39
*244 FILLER_4_44
*245 FILLER_4_50
*246 FILLER_4_56
*247 FILLER_4_62
*248 FILLER_4_68
*249 FILLER_4_74
*250 FILLER_4_90
*251 FILLER_4_98
*252 FILLER_5_14
*253 FILLER_5_2
*254 FILLER_5_20
*255 FILLER_5_26
*256 FILLER_5_32
*257 FILLER_5_38
*258 FILLER_5_44
*259 FILLER_5_50
*260 FILLER_5_56
*261 FILLER_5_62
*262 FILLER_5_68
*263 FILLER_5_70
*264 FILLER_5_73
*265 FILLER_5_8
*266 FILLER_5_89
*267 FILLER_5_97
*268 FILLER_6_13
*269 FILLER_6_18
*270 FILLER_6_2
*271 FILLER_6_26
*272 FILLER_6_32
*273 FILLER_6_34
*274 FILLER_6_37
*275 FILLER_6_41
*276 FILLER_6_46
*277 FILLER_6_52
*278 FILLER_6_58
*279 FILLER_6_64
*280 FILLER_6_9
*281 FILLER_6_96
*282 FILLER_6_98
*283 FILLER_7_11
*284 FILLER_7_17
*285 FILLER_7_2
*286 FILLER_7_23
*287 FILLER_7_29
*288 FILLER_7_35
*289 FILLER_7_41
*290 FILLER_7_47
*291 FILLER_7_53
*292 FILLER_7_59
*293 FILLER_7_6
*294 FILLER_7_67
*295 FILLER_7_73
*296 FILLER_7_89
*297 FILLER_7_97
*298 FILLER_8_10
*299 FILLER_8_16
*300 FILLER_8_2
*301 FILLER_8_22
*302 FILLER_8_28
*303 FILLER_8_34
*304 FILLER_8_37
*305 FILLER_8_41
*306 FILLER_8_46
*307 FILLER_8_52
*308 FILLER_8_58
*309 FILLER_8_90
*310 FILLER_8_98
*311 FILLER_9_11
*312 FILLER_9_17
*313 FILLER_9_2
*314 FILLER_9_23
*315 FILLER_9_29
*316 FILLER_9_35
*317 FILLER_9_41
*318 FILLER_9_47
*319 FILLER_9_53
*320 FILLER_9_59
*321 FILLER_9_6
*322 FILLER_9_65
*323 FILLER_9_69
*324 FILLER_9_73
*325 FILLER_9_89
*326 FILLER_9_97
*327 PHY_0
*328 PHY_1
*329 PHY_10
*330 PHY_11
*331 PHY_12
*332 PHY_13
*333 PHY_14
*334 PHY_15
*335 PHY_16
*336 PHY_17
*337 PHY_18
*338 PHY_19
*339 PHY_2
*340 PHY_20
*341 PHY_21
*342 PHY_22
*343 PHY_23
*344 PHY_3
*345 PHY_4
*346 PHY_5
*347 PHY_6
*348 PHY_7
*349 PHY_8
*350 PHY_9
*351 TAP_24
*352 TAP_25
*353 TAP_26
*354 TAP_27
*355 TAP_28
*356 TAP_29
*357 TAP_30
*358 TAP_31
*359 TAP_32
*360 TAP_33
*361 TAP_34
*362 TAP_35
*363 TAP_36
*364 TAP_37
*365 _0_
*366 gen_ring\[0\]\.u_uinv
*367 gen_ring\[100\]\.u_uinv
*368 gen_ring\[101\]\.u_uinv
*369 gen_ring\[102\]\.u_uinv
*370 gen_ring\[103\]\.u_uinv
*371 gen_ring\[104\]\.u_uinv
*372 gen_ring\[105\]\.u_uinv
*373 gen_ring\[106\]\.u_uinv
*374 gen_ring\[107\]\.u_uinv
*375 gen_ring\[108\]\.u_uinv
*376 gen_ring\[109\]\.u_uinv
*377 gen_ring\[10\]\.u_uinv
*378 gen_ring\[110\]\.u_uinv
*379 gen_ring\[111\]\.u_uinv
*380 gen_ring\[112\]\.u_uinv
*381 gen_ring\[113\]\.u_uinv
*382 gen_ring\[114\]\.u_uinv
*383 gen_ring\[115\]\.u_uinv
*384 gen_ring\[116\]\.u_uinv
*385 gen_ring\[117\]\.u_uinv
*386 gen_ring\[118\]\.u_uinv
*387 gen_ring\[119\]\.u_uinv
*388 gen_ring\[11\]\.u_uinv
*389 gen_ring\[120\]\.u_uinv
*390 gen_ring\[121\]\.u_uinv
*391 gen_ring\[122\]\.u_uinv
*392 gen_ring\[123\]\.u_uinv
*393 gen_ring\[124\]\.u_uinv
*394 gen_ring\[125\]\.u_uinv
*395 gen_ring\[12\]\.u_uinv
*396 gen_ring\[13\]\.u_uinv
*397 gen_ring\[14\]\.u_uinv
*398 gen_ring\[15\]\.u_uinv
*399 gen_ring\[16\]\.u_uinv
*400 gen_ring\[17\]\.u_uinv
*401 gen_ring\[18\]\.u_uinv
*402 gen_ring\[19\]\.u_uinv
*403 gen_ring\[1\]\.u_uinv
*404 gen_ring\[20\]\.u_uinv
*405 gen_ring\[21\]\.u_uinv
*406 gen_ring\[22\]\.u_uinv
*407 gen_ring\[23\]\.u_uinv
*408 gen_ring\[24\]\.u_uinv
*409 gen_ring\[25\]\.u_uinv
*410 gen_ring\[26\]\.u_uinv
*411 gen_ring\[27\]\.u_uinv
*412 gen_ring\[28\]\.u_uinv
*413 gen_ring\[29\]\.u_uinv
*414 gen_ring\[2\]\.u_uinv
*415 gen_ring\[30\]\.u_uinv
*416 gen_ring\[31\]\.u_uinv
*417 gen_ring\[32\]\.u_uinv
*418 gen_ring\[33\]\.u_uinv
*419 gen_ring\[34\]\.u_uinv
*420 gen_ring\[35\]\.u_uinv
*421 gen_ring\[36\]\.u_uinv
*422 gen_ring\[37\]\.u_uinv
*423 gen_ring\[38\]\.u_uinv
*424 gen_ring\[39\]\.u_uinv
*425 gen_ring\[3\]\.u_uinv
*426 gen_ring\[40\]\.u_uinv
*427 gen_ring\[41\]\.u_uinv
*428 gen_ring\[42\]\.u_uinv
*429 gen_ring\[43\]\.u_uinv
*430 gen_ring\[44\]\.u_uinv
*431 gen_ring\[45\]\.u_uinv
*432 gen_ring\[46\]\.u_uinv
*433 gen_ring\[47\]\.u_uinv
*434 gen_ring\[48\]\.u_uinv
*435 gen_ring\[49\]\.u_uinv
*436 gen_ring\[4\]\.u_uinv
*437 gen_ring\[50\]\.u_uinv
*438 gen_ring\[51\]\.u_uinv
*439 gen_ring\[52\]\.u_uinv
*440 gen_ring\[53\]\.u_uinv
*441 gen_ring\[54\]\.u_uinv
*442 gen_ring\[55\]\.u_uinv
*443 gen_ring\[56\]\.u_uinv
*444 gen_ring\[57\]\.u_uinv
*445 gen_ring\[58\]\.u_uinv
*446 gen_ring\[59\]\.u_uinv
*447 gen_ring\[5\]\.u_uinv
*448 gen_ring\[60\]\.u_uinv
*449 gen_ring\[61\]\.u_uinv
*450 gen_ring\[62\]\.u_uinv
*451 gen_ring\[63\]\.u_uinv
*452 gen_ring\[64\]\.u_uinv
*453 gen_ring\[65\]\.u_uinv
*454 gen_ring\[66\]\.u_uinv
*455 gen_ring\[67\]\.u_uinv
*456 gen_ring\[68\]\.u_uinv
*457 gen_ring\[69\]\.u_uinv
*458 gen_ring\[6\]\.u_uinv
*459 gen_ring\[70\]\.u_uinv
*460 gen_ring\[71\]\.u_uinv
*461 gen_ring\[72\]\.u_uinv
*462 gen_ring\[73\]\.u_uinv
*463 gen_ring\[74\]\.u_uinv
*464 gen_ring\[75\]\.u_uinv
*465 gen_ring\[76\]\.u_uinv
*466 gen_ring\[77\]\.u_uinv
*467 gen_ring\[78\]\.u_uinv
*468 gen_ring\[79\]\.u_uinv
*469 gen_ring\[7\]\.u_uinv
*470 gen_ring\[80\]\.u_uinv
*471 gen_ring\[81\]\.u_uinv
*472 gen_ring\[82\]\.u_uinv
*473 gen_ring\[83\]\.u_uinv
*474 gen_ring\[84\]\.u_uinv
*475 gen_ring\[85\]\.u_uinv
*476 gen_ring\[86\]\.u_uinv
*477 gen_ring\[87\]\.u_uinv
*478 gen_ring\[88\]\.u_uinv
*479 gen_ring\[89\]\.u_uinv
*480 gen_ring\[8\]\.u_uinv
*481 gen_ring\[90\]\.u_uinv
*482 gen_ring\[91\]\.u_uinv
*483 gen_ring\[92\]\.u_uinv
*484 gen_ring\[93\]\.u_uinv
*485 gen_ring\[94\]\.u_uinv
*486 gen_ring\[95\]\.u_uinv
*487 gen_ring\[96\]\.u_uinv
*488 gen_ring\[97\]\.u_uinv
*489 gen_ring\[98\]\.u_uinv
*490 gen_ring\[99\]\.u_uinv
*491 gen_ring\[9\]\.u_uinv
*492 u_uinv_init

*PORTS
Y O

*D_NET *1 0.00567704
*CONN
*P Y O
*I *394:I I *D gf180mcu_fd_sc_mcu7t5v0__inv_1
*I *365:I I *D gf180mcu_fd_sc_mcu7t5v0__buf_1
*I *393:ZN O *D gf180mcu_fd_sc_mcu7t5v0__inv_1
*CAP
1 Y 0.00017392
2 *394:I 0.000631457
3 *365:I 0
4 *393:ZN 0.000475692
5 *1:18 0.0007181
6 *1:9 0.000736255
7 *394:I *382:I 0.000783293
8 *394:I *425:I 0
9 *394:I *450:I 0.000108797
10 *394:I *452:I 0.00105678
11 *394:I *488:I 0
12 *1:9 *390:I 1.22751e-05
13 *1:9 *391:I 9.8457e-05
14 *1:9 *392:I 0.000110476
15 *1:9 *393:I 0.000695592
16 *1:9 *401:I 2.07143e-05
17 *1:9 *425:I 5.52382e-05
18 *1:18 *488:I 0
*RES
1 *393:ZN *1:9 14.4 
2 *1:9 Y 1.845 
3 *1:9 *1:18 0.9 
4 *1:18 *365:I 9 
5 *1:18 *394:I 17.73 
*END

*D_NET *4 0.000973762
*CONN
*I *366:I I *D gf180mcu_fd_sc_mcu7t5v0__inv_1
*I *492:ZN O *D gf180mcu_fd_sc_mcu7t5v0__inv_1
*CAP
1 *366:I 0.000455298
2 *492:ZN 0.000455298
3 *366:I *401:I 0
4 *366:I *402:I 0
5 *366:I *403:I 6.31659e-05
6 *366:I *414:I 0
7 *366:I *448:I 0
8 *366:I *492:I 0
*RES
1 *492:ZN *366:I 22.14 
*END

*D_NET *5 0.00256263
*CONN
*I *367:I I *D gf180mcu_fd_sc_mcu7t5v0__inv_1
*I *490:ZN O *D gf180mcu_fd_sc_mcu7t5v0__inv_1
*CAP
1 *367:I 0.000151748
2 *490:ZN 0.000151748
3 *367:I *370:I 0.000675133
4 *367:I *371:I 8.18344e-05
5 *367:I *488:I 0.00127662
6 *367:I *490:I 0.000225556
*RES
1 *490:ZN *367:I 12.6 
*END

*D_NET *6 0.00153463
*CONN
*I *368:I I *D gf180mcu_fd_sc_mcu7t5v0__inv_1
*I *367:ZN O *D gf180mcu_fd_sc_mcu7t5v0__inv_1
*CAP
1 *368:I 0.000356864
2 *367:ZN 0.000356864
3 *368:I *369:I 6.13758e-05
4 *368:I *388:I 3.45239e-05
5 *368:I *390:I 0
6 *368:I *488:I 0.000552382
7 *368:I *489:I 8.66932e-05
8 *368:I *490:I 8.5926e-05
*RES
1 *367:ZN *368:I 13.41 
*END

*D_NET *7 0.000712555
*CONN
*I *369:I I *D gf180mcu_fd_sc_mcu7t5v0__inv_1
*I *368:ZN O *D gf180mcu_fd_sc_mcu7t5v0__inv_1
*CAP
1 *369:I 0.000278407
2 *368:ZN 0.000278407
3 *369:I *372:I 1.53439e-05
4 *369:I *380:I 0
5 *369:I *381:I 4.83334e-05
6 *369:I *489:I 3.06879e-06
7 *369:I *490:I 2.76191e-05
8 *368:I *369:I 6.13758e-05
*RES
1 *368:ZN *369:I 11.79 
*END

*D_NET *8 0.00161262
*CONN
*I *370:I I *D gf180mcu_fd_sc_mcu7t5v0__inv_1
*I *369:ZN O *D gf180mcu_fd_sc_mcu7t5v0__inv_1
*CAP
1 *370:I 0.000119758
2 *369:ZN 0.000119758
3 *370:I *371:I 0.000616139
4 *370:I *488:I 0
5 *370:I *490:I 8.18344e-05
6 *367:I *370:I 0.000675133
*RES
1 *369:ZN *370:I 19.98 
*END

*D_NET *9 0.00180188
*CONN
*I *371:I I *D gf180mcu_fd_sc_mcu7t5v0__inv_1
*I *370:ZN O *D gf180mcu_fd_sc_mcu7t5v0__inv_1
*CAP
1 *371:I 0.00019418
2 *370:ZN 0.00019418
3 *371:I *373:I 0
4 *371:I *488:I 4.04104e-05
5 *371:I *490:I 0.000675133
6 *367:I *371:I 8.18344e-05
7 *370:I *371:I 0.000616139
*RES
1 *370:ZN *371:I 21.06 
*END

*D_NET *10 0.000480591
*CONN
*I *372:I I *D gf180mcu_fd_sc_mcu7t5v0__inv_1
*I *371:ZN O *D gf180mcu_fd_sc_mcu7t5v0__inv_1
*CAP
1 *372:I 0.000205772
2 *371:ZN 0.000205772
3 *372:I *486:I 0
4 *372:I *490:I 5.37038e-05
5 *369:I *372:I 1.53439e-05
*RES
1 *371:ZN *372:I 11.16 
*END

*D_NET *11 0.000178885
*CONN
*I *373:I I *D gf180mcu_fd_sc_mcu7t5v0__inv_1
*I *372:ZN O *D gf180mcu_fd_sc_mcu7t5v0__inv_1
*CAP
1 *373:I 8.94426e-05
2 *372:ZN 8.94426e-05
3 *371:I *373:I 0
*RES
1 *372:ZN *373:I 18.99 
*END

*D_NET *12 0.000216144
*CONN
*I *374:I I *D gf180mcu_fd_sc_mcu7t5v0__inv_1
*I *373:ZN O *D gf180mcu_fd_sc_mcu7t5v0__inv_1
*CAP
1 *374:I 9.77149e-05
2 *373:ZN 9.77149e-05
3 *374:I *484:I 2.07143e-05
*RES
1 *373:ZN *374:I 9.99 
*END

*D_NET *13 0.000491628
*CONN
*I *375:I I *D gf180mcu_fd_sc_mcu7t5v0__inv_1
*I *374:ZN O *D gf180mcu_fd_sc_mcu7t5v0__inv_1
*CAP
1 *375:I 0.000159504
2 *374:ZN 0.000159504
3 *375:I *376:I 6.21429e-05
4 *375:I *462:I 0.000110476
*RES
1 *374:ZN *375:I 10.98 
*END

*D_NET *14 0.000288551
*CONN
*I *376:I I *D gf180mcu_fd_sc_mcu7t5v0__inv_1
*I *375:ZN O *D gf180mcu_fd_sc_mcu7t5v0__inv_1
*CAP
1 *376:I 8.2516e-05
2 *375:ZN 8.2516e-05
3 *376:I *378:I 6.13758e-05
4 *376:I *379:I 0
5 *375:I *376:I 6.21429e-05
*RES
1 *375:ZN *376:I 10.17 
*END

*D_NET *15 0.00283608
*CONN
*I *377:I I *D gf180mcu_fd_sc_mcu7t5v0__inv_1
*I *491:ZN O *D gf180mcu_fd_sc_mcu7t5v0__inv_1
*CAP
1 *377:I 0.00033777
2 *491:ZN 0.00033777
3 *377:I *386:I 0.000111905
4 *377:I *388:I 0.0016776
5 *377:I *389:I 8.15977e-05
6 *377:I *390:I 0.000110476
7 *377:I *425:I 4.2963e-05
8 *377:I *458:I 0.000135996
*RES
1 *491:ZN *377:I 23.67 
*END

*D_NET *16 0.000325476
*CONN
*I *378:I I *D gf180mcu_fd_sc_mcu7t5v0__inv_1
*I *376:ZN O *D gf180mcu_fd_sc_mcu7t5v0__inv_1
*CAP
1 *378:I 0.000122844
2 *376:ZN 0.000122844
3 *378:I *379:I 1.22751e-05
4 *378:I *380:I 6.13757e-06
5 *376:I *378:I 6.13758e-05
*RES
1 *376:ZN *378:I 10.35 
*END

*D_NET *17 0.000998204
*CONN
*I *379:I I *D gf180mcu_fd_sc_mcu7t5v0__inv_1
*I *378:ZN O *D gf180mcu_fd_sc_mcu7t5v0__inv_1
*CAP
1 *379:I 9.74811e-05
2 *378:ZN 9.74811e-05
3 *379:I *380:I 0.000109697
4 *379:I *381:I 0
5 *379:I *382:I 6.13757e-06
6 *379:I *383:I 0.000675133
7 *376:I *379:I 0
8 *378:I *379:I 1.22751e-05
*RES
1 *378:ZN *379:I 10.62 
*END

*D_NET *18 0.000717387
*CONN
*I *380:I I *D gf180mcu_fd_sc_mcu7t5v0__inv_1
*I *379:ZN O *D gf180mcu_fd_sc_mcu7t5v0__inv_1
*CAP
1 *380:I 0.000243237
2 *379:ZN 0.000243237
3 *380:I *381:I 5.37038e-05
4 *380:I *382:I 6.13757e-05
5 *380:I *384:I 0
6 *369:I *380:I 0
7 *378:I *380:I 6.13757e-06
8 *379:I *380:I 0.000109697
*RES
1 *379:ZN *380:I 11.79 
*END

*D_NET *19 0.000370857
*CONN
*I *381:I I *D gf180mcu_fd_sc_mcu7t5v0__inv_1
*I *380:ZN O *D gf180mcu_fd_sc_mcu7t5v0__inv_1
*CAP
1 *381:I 0.000115997
2 *380:ZN 0.000115997
3 *381:I *382:I 3.68254e-05
4 *369:I *381:I 4.83334e-05
5 *379:I *381:I 0
6 *380:I *381:I 5.37038e-05
*RES
1 *380:ZN *381:I 10.44 
*END

*D_NET *20 0.00253496
*CONN
*I *382:I I *D gf180mcu_fd_sc_mcu7t5v0__inv_1
*I *381:ZN O *D gf180mcu_fd_sc_mcu7t5v0__inv_1
*CAP
1 *382:I 0.000506611
2 *381:ZN 0.000506611
3 *382:I *383:I 0.000634108
4 *382:I *453:I 0
5 *379:I *382:I 6.13757e-06
6 *380:I *382:I 6.13757e-05
7 *381:I *382:I 3.68254e-05
8 *394:I *382:I 0.000783293
*RES
1 *381:ZN *382:I 25.29 
*END

*D_NET *21 0.0030075
*CONN
*I *383:I I *D gf180mcu_fd_sc_mcu7t5v0__inv_1
*I *382:ZN O *D gf180mcu_fd_sc_mcu7t5v0__inv_1
*CAP
1 *383:I 0.000395581
2 *382:ZN 0.000395581
3 *383:I *453:I 0.000725313
4 *383:I *454:I 0.000163669
5 *383:I *456:I 1.81166e-05
6 *383:I *459:I 0
7 *379:I *383:I 0.000675133
8 *382:I *383:I 0.000634108
*RES
1 *382:ZN *383:I 24.93 
*END

*D_NET *22 0.000365862
*CONN
*I *384:I I *D gf180mcu_fd_sc_mcu7t5v0__inv_1
*I *383:ZN O *D gf180mcu_fd_sc_mcu7t5v0__inv_1
*CAP
1 *384:I 9.08673e-05
2 *383:ZN 9.08673e-05
3 *384:I *385:I 0.000184127
4 *380:I *384:I 0
*RES
1 *383:ZN *384:I 10.17 
*END

*D_NET *23 0.000553046
*CONN
*I *385:I I *D gf180mcu_fd_sc_mcu7t5v0__inv_1
*I *384:ZN O *D gf180mcu_fd_sc_mcu7t5v0__inv_1
*CAP
1 *385:I 0.000184459
2 *384:ZN 0.000184459
3 *385:I *387:I 0
4 *384:I *385:I 0.000184127
*RES
1 *384:ZN *385:I 10.8 
*END

*D_NET *24 0.00188881
*CONN
*I *386:I I *D gf180mcu_fd_sc_mcu7t5v0__inv_1
*I *385:ZN O *D gf180mcu_fd_sc_mcu7t5v0__inv_1
*CAP
1 *386:I 0.000131761
2 *385:ZN 0.000131761
3 *386:I *387:I 0.000135027
4 *386:I *388:I 0.000920636
5 *386:I *389:I 0.000310849
6 *386:I *425:I 0.000146876
7 *377:I *386:I 0.000111905
*RES
1 *385:ZN *386:I 21.24 
*END

*D_NET *25 0.000403122
*CONN
*I *387:I I *D gf180mcu_fd_sc_mcu7t5v0__inv_1
*I *386:ZN O *D gf180mcu_fd_sc_mcu7t5v0__inv_1
*CAP
1 *387:I 0.000134048
2 *386:ZN 0.000134048
3 *385:I *387:I 0
4 *386:I *387:I 0.000135027
*RES
1 *386:ZN *387:I 10.44 
*END

*D_NET *26 0.00604173
*CONN
*I *388:I I *D gf180mcu_fd_sc_mcu7t5v0__inv_1
*I *377:ZN O *D gf180mcu_fd_sc_mcu7t5v0__inv_1
*CAP
1 *388:I 0.000407442
2 *377:ZN 0.000407442
3 *388:I *401:I 0.000600973
4 *388:I *425:I 4.09172e-05
5 *388:I *447:I 0.000675133
6 *388:I *458:I 4.24032e-05
7 *388:I *469:I 0.00123466
8 *368:I *388:I 3.45239e-05
9 *377:I *388:I 0.0016776
10 *386:I *388:I 0.000920636
*RES
1 *377:ZN *388:I 25.74 
*END

*D_NET *27 0.000533002
*CONN
*I *389:I I *D gf180mcu_fd_sc_mcu7t5v0__inv_1
*I *387:ZN O *D gf180mcu_fd_sc_mcu7t5v0__inv_1
*CAP
1 *389:I 6.09522e-05
2 *387:ZN 6.09522e-05
3 *389:I *425:I 1.86509e-05
4 *389:I *458:I 0
5 *377:I *389:I 8.15977e-05
6 *386:I *389:I 0.000310849
*RES
1 *387:ZN *389:I 18.99 
*END

*D_NET *28 0.00101227
*CONN
*I *390:I I *D gf180mcu_fd_sc_mcu7t5v0__inv_1
*I *389:ZN O *D gf180mcu_fd_sc_mcu7t5v0__inv_1
*CAP
1 *390:I 0.000178797
2 *389:ZN 0.000178797
3 *390:I *391:I 0.000102293
4 *390:I *425:I 0.00042963
5 *368:I *390:I 0
6 *377:I *390:I 0.000110476
7 *1:9 *390:I 1.22751e-05
*RES
1 *389:ZN *390:I 11.61 
*END

*D_NET *29 0.000992823
*CONN
*I *391:I I *D gf180mcu_fd_sc_mcu7t5v0__inv_1
*I *390:ZN O *D gf180mcu_fd_sc_mcu7t5v0__inv_1
*CAP
1 *391:I 5.84698e-05
2 *390:ZN 5.84698e-05
3 *391:I *425:I 0.000675133
4 *390:I *391:I 0.000102293
5 *1:9 *391:I 9.8457e-05
*RES
1 *390:ZN *391:I 10.44 
*END

*D_NET *30 0.000404988
*CONN
*I *392:I I *D gf180mcu_fd_sc_mcu7t5v0__inv_1
*I *391:ZN O *D gf180mcu_fd_sc_mcu7t5v0__inv_1
*CAP
1 *392:I 5.5192e-05
2 *391:ZN 5.5192e-05
3 *392:I *393:I 0
4 *392:I *425:I 0.000184127
5 *1:9 *392:I 0.000110476
*RES
1 *391:ZN *392:I 10.08 
*END

*D_NET *31 0.000894586
*CONN
*I *393:I I *D gf180mcu_fd_sc_mcu7t5v0__inv_1
*I *392:ZN O *D gf180mcu_fd_sc_mcu7t5v0__inv_1
*CAP
1 *393:I 6.81698e-05
2 *392:ZN 6.81698e-05
3 *393:I *425:I 6.26544e-05
4 *392:I *393:I 0
5 *1:9 *393:I 0.000695592
*RES
1 *392:ZN *393:I 10.26 
*END

*D_NET *33 0.000199701
*CONN
*I *492:I I *D gf180mcu_fd_sc_mcu7t5v0__inv_1
*I *394:ZN O *D gf180mcu_fd_sc_mcu7t5v0__inv_1
*CAP
1 *492:I 9.98507e-05
2 *394:ZN 9.98507e-05
3 *366:I *492:I 0
*RES
1 *394:ZN *492:I 9.99 
*END

*D_NET *34 0.00317003
*CONN
*I *395:I I *D gf180mcu_fd_sc_mcu7t5v0__inv_1
*I *388:ZN O *D gf180mcu_fd_sc_mcu7t5v0__inv_1
*CAP
1 *395:I 0.000585118
2 *388:ZN 0.000585118
3 *395:I *414:I 0
4 *395:I *425:I 0.000105689
5 *395:I *441:I 0.000111905
6 *395:I *444:I 0.00130557
7 *395:I *448:I 0.000476634
8 *395:I *458:I 0
*RES
1 *388:ZN *395:I 25.38 
*END

*D_NET *35 0.00654895
*CONN
*I *396:I I *D gf180mcu_fd_sc_mcu7t5v0__inv_1
*I *395:ZN O *D gf180mcu_fd_sc_mcu7t5v0__inv_1
*CAP
1 *396:I 0.00041369
2 *395:ZN 0.00041369
3 *396:I *401:I 0.00128818
4 *396:I *419:I 0.00366802
5 *396:I *420:I 0.000186509
6 *396:I *431:I 0.000184127
7 *396:I *433:I 0
8 *396:I *437:I 0.000211377
9 *396:I *440:I 0.000135027
10 *396:I *443:I 4.83334e-05
*RES
1 *395:ZN *396:I 26.73 
*END

*D_NET *36 0.000391914
*CONN
*I *397:I I *D gf180mcu_fd_sc_mcu7t5v0__inv_1
*I *396:ZN O *D gf180mcu_fd_sc_mcu7t5v0__inv_1
*CAP
1 *397:I 8.34347e-05
2 *396:ZN 8.34347e-05
3 *397:I *398:I 0.000225045
*RES
1 *396:ZN *397:I 10.17 
*END

*D_NET *37 0.000696564
*CONN
*I *398:I I *D gf180mcu_fd_sc_mcu7t5v0__inv_1
*I *397:ZN O *D gf180mcu_fd_sc_mcu7t5v0__inv_1
*CAP
1 *398:I 0.000218882
2 *397:ZN 0.000218882
3 *398:I *399:I 3.37566e-05
4 *397:I *398:I 0.000225045
*RES
1 *397:ZN *398:I 11.34 
*END

*D_NET *38 0.000207163
*CONN
*I *399:I I *D gf180mcu_fd_sc_mcu7t5v0__inv_1
*I *398:ZN O *D gf180mcu_fd_sc_mcu7t5v0__inv_1
*CAP
1 *399:I 8.6703e-05
2 *398:ZN 8.6703e-05
3 *398:I *399:I 3.37566e-05
*RES
1 *398:ZN *399:I 9.99 
*END

*D_NET *39 0.00299206
*CONN
*I *400:I I *D gf180mcu_fd_sc_mcu7t5v0__inv_1
*I *399:ZN O *D gf180mcu_fd_sc_mcu7t5v0__inv_1
*CAP
1 *400:I 0.000226938
2 *399:ZN 0.000226938
3 *400:I *419:I 0.000268552
4 *400:I *420:I 0.00205138
5 *400:I *421:I 8.14819e-05
6 *400:I *423:I 0.000136773
*RES
1 *399:ZN *400:I 21.96 
*END

*D_NET *40 0.00694607
*CONN
*I *401:I I *D gf180mcu_fd_sc_mcu7t5v0__inv_1
*I *400:ZN O *D gf180mcu_fd_sc_mcu7t5v0__inv_1
*CAP
1 *401:I 0.000642925
2 *400:ZN 0.000642925
3 *401:I *419:I 0.000293739
4 *401:I *420:I 0.00105689
5 *401:I *425:I 6.21429e-05
6 *401:I *432:I 0.000310849
7 *401:I *433:I 0.000248679
8 *401:I *434:I 0.000683868
9 *401:I *437:I 0.00105689
10 *401:I *440:I 1.24339e-05
11 *401:I *442:I 0
12 *401:I *458:I 2.48624e-05
13 *366:I *401:I 0
14 *388:I *401:I 0.000600973
15 *396:I *401:I 0.00128818
16 *1:9 *401:I 2.07143e-05
*RES
1 *400:ZN *401:I 29.88 
*END

*D_NET *41 0.000208168
*CONN
*I *402:I I *D gf180mcu_fd_sc_mcu7t5v0__inv_1
*I *401:ZN O *D gf180mcu_fd_sc_mcu7t5v0__inv_1
*CAP
1 *402:I 9.94214e-05
2 *401:ZN 9.94214e-05
3 *402:I *420:I 0
4 *402:I *433:I 9.32547e-06
5 *366:I *402:I 0
*RES
1 *401:ZN *402:I 18.99 
*END

*D_NET *42 0.000324417
*CONN
*I *403:I I *D gf180mcu_fd_sc_mcu7t5v0__inv_1
*I *366:ZN O *D gf180mcu_fd_sc_mcu7t5v0__inv_1
*CAP
1 *403:I 0.000130626
2 *366:ZN 0.000130626
3 *366:I *403:I 6.31659e-05
*RES
1 *366:ZN *403:I 10.26 
*END

*D_NET *43 0.000677153
*CONN
*I *404:I I *D gf180mcu_fd_sc_mcu7t5v0__inv_1
*I *402:ZN O *D gf180mcu_fd_sc_mcu7t5v0__inv_1
*CAP
1 *404:I 0.000226091
2 *402:ZN 0.000226091
3 *404:I *407:I 0.000224971
4 *404:I *420:I 0
*RES
1 *402:ZN *404:I 11.34 
*END

*D_NET *44 0.000412794
*CONN
*I *405:I I *D gf180mcu_fd_sc_mcu7t5v0__inv_1
*I *404:ZN O *D gf180mcu_fd_sc_mcu7t5v0__inv_1
*CAP
1 *405:I 7.49404e-05
2 *404:ZN 7.49404e-05
3 *405:I *406:I 0
4 *405:I *407:I 0.000227955
5 *405:I *411:I 2.09823e-05
6 *405:I *418:I 1.39757e-05
*RES
1 *404:ZN *405:I 19.17 
*END

*D_NET *45 0.000859757
*CONN
*I *406:I I *D gf180mcu_fd_sc_mcu7t5v0__inv_1
*I *405:ZN O *D gf180mcu_fd_sc_mcu7t5v0__inv_1
*CAP
1 *406:I 0.000174316
2 *405:ZN 0.000174316
3 *406:I *407:I 8.58822e-05
4 *406:I *410:I 7.6935e-05
5 *406:I *411:I 0.000306879
6 *406:I *412:I 4.14286e-05
7 *405:I *406:I 0
*RES
1 *405:ZN *406:I 20.25 
*END

*D_NET *46 0.00140403
*CONN
*I *407:I I *D gf180mcu_fd_sc_mcu7t5v0__inv_1
*I *406:ZN O *D gf180mcu_fd_sc_mcu7t5v0__inv_1
*CAP
1 *407:I 0.000341119
2 *406:ZN 0.000341119
3 *407:I *411:I 0
4 *407:I *412:I 0
5 *407:I *413:I 6.21306e-05
6 *407:I *418:I 0.000111905
7 *407:I *420:I 8.95063e-06
8 *404:I *407:I 0.000224971
9 *405:I *407:I 0.000227955
10 *406:I *407:I 8.58822e-05
*RES
1 *406:ZN *407:I 22.32 
*END

*D_NET *47 0.00025583
*CONN
*I *408:I I *D gf180mcu_fd_sc_mcu7t5v0__inv_1
*I *407:ZN O *D gf180mcu_fd_sc_mcu7t5v0__inv_1
*CAP
1 *408:I 0.000127915
2 *407:ZN 0.000127915
*RES
1 *407:ZN *408:I 19.17 
*END

*D_NET *48 0.00562045
*CONN
*I *409:I I *D gf180mcu_fd_sc_mcu7t5v0__inv_1
*I *408:ZN O *D gf180mcu_fd_sc_mcu7t5v0__inv_1
*CAP
1 *409:I 0.000599713
2 *408:ZN 0.000599713
3 *409:I *410:I 0.00433203
4 *409:I *413:I 8.89948e-05
*RES
1 *408:ZN *409:I 26.19 
*END

*D_NET *49 0.00557601
*CONN
*I *410:I I *D gf180mcu_fd_sc_mcu7t5v0__inv_1
*I *409:ZN O *D gf180mcu_fd_sc_mcu7t5v0__inv_1
*CAP
1 *410:I 0.000368707
2 *409:ZN 0.000368707
3 *410:I *411:I 0.00042963
4 *406:I *410:I 7.6935e-05
5 *409:I *410:I 0.00433203
*RES
1 *409:ZN *410:I 24.3 
*END

*D_NET *50 0.00147816
*CONN
*I *411:I I *D gf180mcu_fd_sc_mcu7t5v0__inv_1
*I *410:ZN O *D gf180mcu_fd_sc_mcu7t5v0__inv_1
*CAP
1 *411:I 0.000354325
2 *410:ZN 0.000354325
3 *411:I *412:I 1.20194e-05
4 *405:I *411:I 2.09823e-05
5 *406:I *411:I 0.000306879
6 *407:I *411:I 0
7 *410:I *411:I 0.00042963
*RES
1 *410:ZN *411:I 21.33 
*END

*D_NET *51 0.00048095
*CONN
*I *412:I I *D gf180mcu_fd_sc_mcu7t5v0__inv_1
*I *411:ZN O *D gf180mcu_fd_sc_mcu7t5v0__inv_1
*CAP
1 *412:I 0.000213751
2 *411:ZN 0.000213751
3 *406:I *412:I 4.14286e-05
4 *407:I *412:I 0
5 *411:I *412:I 1.20194e-05
*RES
1 *411:ZN *412:I 11.16 
*END

*D_NET *52 0.000853996
*CONN
*I *413:I I *D gf180mcu_fd_sc_mcu7t5v0__inv_1
*I *412:ZN O *D gf180mcu_fd_sc_mcu7t5v0__inv_1
*CAP
1 *413:I 0.00034696
2 *412:ZN 0.00034696
3 *413:I *415:I 8.95063e-06
4 *413:I *417:I 0
5 *407:I *413:I 6.21306e-05
6 *409:I *413:I 8.89948e-05
*RES
1 *412:ZN *413:I 12.42 
*END

*D_NET *53 0.000247747
*CONN
*I *414:I I *D gf180mcu_fd_sc_mcu7t5v0__inv_1
*I *403:ZN O *D gf180mcu_fd_sc_mcu7t5v0__inv_1
*CAP
1 *414:I 0.000123874
2 *403:ZN 0.000123874
3 *366:I *414:I 0
4 *395:I *414:I 0
*RES
1 *403:ZN *414:I 18.99 
*END

*D_NET *54 0.000211119
*CONN
*I *415:I I *D gf180mcu_fd_sc_mcu7t5v0__inv_1
*I *413:ZN O *D gf180mcu_fd_sc_mcu7t5v0__inv_1
*CAP
1 *415:I 0.000101084
2 *413:ZN 0.000101084
3 *413:I *415:I 8.95063e-06
*RES
1 *413:ZN *415:I 9.99 
*END

*D_NET *55 0.000274487
*CONN
*I *416:I I *D gf180mcu_fd_sc_mcu7t5v0__inv_1
*I *415:ZN O *D gf180mcu_fd_sc_mcu7t5v0__inv_1
*CAP
1 *416:I 0.000106556
2 *415:ZN 0.000106556
3 *416:I *417:I 6.13758e-05
*RES
1 *415:ZN *416:I 10.17 
*END

*D_NET *56 0.000348023
*CONN
*I *417:I I *D gf180mcu_fd_sc_mcu7t5v0__inv_1
*I *416:ZN O *D gf180mcu_fd_sc_mcu7t5v0__inv_1
*CAP
1 *417:I 0.000143324
2 *416:ZN 0.000143324
3 *413:I *417:I 0
4 *416:I *417:I 6.13758e-05
*RES
1 *416:ZN *417:I 10.26 
*END

*D_NET *57 0.00129587
*CONN
*I *418:I I *D gf180mcu_fd_sc_mcu7t5v0__inv_1
*I *417:ZN O *D gf180mcu_fd_sc_mcu7t5v0__inv_1
*CAP
1 *418:I 0.000215313
2 *417:ZN 0.000215313
3 *418:I *419:I 0.00042963
4 *418:I *420:I 0.000172964
5 *418:I *421:I 0.000136773
6 *405:I *418:I 1.39757e-05
7 *407:I *418:I 0.000111905
*RES
1 *417:ZN *418:I 20.88 
*END

*D_NET *58 0.00977858
*CONN
*I *419:I I *D gf180mcu_fd_sc_mcu7t5v0__inv_1
*I *418:ZN O *D gf180mcu_fd_sc_mcu7t5v0__inv_1
*CAP
1 *419:I 0.000587064
2 *418:ZN 0.000587064
3 *419:I *420:I 0.000181328
4 *419:I *421:I 0.00152507
5 *419:I *430:I 0.000683868
6 *419:I *438:I 0.00155424
7 *396:I *419:I 0.00366802
8 *400:I *419:I 0.000268552
9 *401:I *419:I 0.000293739
10 *418:I *419:I 0.00042963
*RES
1 *418:ZN *419:I 31.77 
*END

*D_NET *59 0.0079261
*CONN
*I *420:I I *D gf180mcu_fd_sc_mcu7t5v0__inv_1
*I *419:ZN O *D gf180mcu_fd_sc_mcu7t5v0__inv_1
*CAP
1 *420:I 0.00102994
2 *419:ZN 0.00102994
3 *420:I *421:I 3.10849e-06
4 *420:I *422:I 0.000227955
5 *420:I *423:I 0.000625582
6 *420:I *424:I 0.00105689
7 *420:I *431:I 4.83334e-05
8 *420:I *432:I 0.000165786
9 *420:I *437:I 8.05557e-05
10 *396:I *420:I 0.000186509
11 *400:I *420:I 0.00205138
12 *401:I *420:I 0.00105689
13 *402:I *420:I 0
14 *404:I *420:I 0
15 *407:I *420:I 8.95063e-06
16 *418:I *420:I 0.000172964
17 *419:I *420:I 0.000181328
*RES
1 *419:ZN *420:I 42.84 
*END

*D_NET *60 0.0118991
*CONN
*I *421:I I *D gf180mcu_fd_sc_mcu7t5v0__inv_1
*I *420:ZN O *D gf180mcu_fd_sc_mcu7t5v0__inv_1
*CAP
1 *421:I 0.000413346
2 *420:ZN 0.000413346
3 *421:I *423:I 0.00708784
4 *421:I *430:I 0.000683868
5 *421:I *436:I 0
6 *421:I *438:I 0.00155424
7 *400:I *421:I 8.14819e-05
8 *418:I *421:I 0.000136773
9 *419:I *421:I 0.00152507
10 *420:I *421:I 3.10849e-06
*RES
1 *420:ZN *421:I 30.78 
*END

*D_NET *61 0.0003476
*CONN
*I *422:I I *D gf180mcu_fd_sc_mcu7t5v0__inv_1
*I *421:ZN O *D gf180mcu_fd_sc_mcu7t5v0__inv_1
*CAP
1 *422:I 5.98221e-05
2 *421:ZN 5.98221e-05
3 *420:I *422:I 0.000227955
*RES
1 *421:ZN *422:I 18.99 
*END

*D_NET *62 0.0093473
*CONN
*I *423:I I *D gf180mcu_fd_sc_mcu7t5v0__inv_1
*I *422:ZN O *D gf180mcu_fd_sc_mcu7t5v0__inv_1
*CAP
1 *423:I 0.000520468
2 *422:ZN 0.000520468
3 *423:I *424:I 0.000244793
4 *423:I *429:I 0.000211377
5 *400:I *423:I 0.000136773
6 *420:I *423:I 0.000625582
7 *421:I *423:I 0.00708784
*RES
1 *422:ZN *423:I 29.88 
*END

*D_NET *63 0.00460691
*CONN
*I *424:I I *D gf180mcu_fd_sc_mcu7t5v0__inv_1
*I *423:ZN O *D gf180mcu_fd_sc_mcu7t5v0__inv_1
*CAP
1 *424:I 0.000233071
2 *423:ZN 0.000233071
3 *424:I *426:I 0.000227955
4 *424:I *427:I 0.00155424
5 *424:I *429:I 0.00105689
6 *420:I *424:I 0.00105689
7 *423:I *424:I 0.000244793
*RES
1 *423:ZN *424:I 23.76 
*END

*D_NET *64 0.00499366
*CONN
*I *425:I I *D gf180mcu_fd_sc_mcu7t5v0__inv_1
*I *414:ZN O *D gf180mcu_fd_sc_mcu7t5v0__inv_1
*CAP
1 *425:I 0.001205
2 *414:ZN 0.001205
3 *425:I *436:I 0.000184054
4 *425:I *447:I 0.000140397
5 *425:I *448:I 0.000208528
6 *425:I *450:I 0.00022666
7 *425:I *452:I 0
8 *377:I *425:I 4.2963e-05
9 *386:I *425:I 0.000146876
10 *388:I *425:I 4.09172e-05
11 *389:I *425:I 1.86509e-05
12 *390:I *425:I 0.00042963
13 *391:I *425:I 0.000675133
14 *392:I *425:I 0.000184127
15 *393:I *425:I 6.26544e-05
16 *394:I *425:I 0
17 *395:I *425:I 0.000105689
18 *401:I *425:I 6.21429e-05
19 *1:9 *425:I 5.52382e-05
*RES
1 *414:ZN *425:I 32.76 
*END

*D_NET *65 0.00034761
*CONN
*I *426:I I *D gf180mcu_fd_sc_mcu7t5v0__inv_1
*I *424:ZN O *D gf180mcu_fd_sc_mcu7t5v0__inv_1
*CAP
1 *426:I 5.98272e-05
2 *424:ZN 5.98272e-05
3 *424:I *426:I 0.000227955
*RES
1 *424:ZN *426:I 18.99 
*END

*D_NET *66 0.00193172
*CONN
*I *427:I I *D gf180mcu_fd_sc_mcu7t5v0__inv_1
*I *426:ZN O *D gf180mcu_fd_sc_mcu7t5v0__inv_1
*CAP
1 *427:I 0.000188739
2 *426:ZN 0.000188739
3 *424:I *427:I 0.00155424
*RES
1 *426:ZN *427:I 20.25 
*END

*D_NET *67 0.000239817
*CONN
*I *428:I I *D gf180mcu_fd_sc_mcu7t5v0__inv_1
*I *427:ZN O *D gf180mcu_fd_sc_mcu7t5v0__inv_1
*CAP
1 *428:I 0.000119909
2 *427:ZN 0.000119909
3 *428:I *431:I 0
*RES
1 *427:ZN *428:I 10.17 
*END

*D_NET *68 0.00163833
*CONN
*I *429:I I *D gf180mcu_fd_sc_mcu7t5v0__inv_1