*SPEF "ieee 1481-1999"
*DESIGN "user_proj_example"
*DATE "11:11:11 Fri 11 11, 1111"
*VENDOR "OpenRCX"
*PROGRAM "Parallel Extraction"
*VERSION "1.0"
*DESIGN_FLOW "NAME_SCOPE LOCAL" "PIN_CAP NONE"
*DIVIDER /
*DELIMITER :
*BUS_DELIMITER []
*T_UNIT 1 NS
*C_UNIT 1 PF
*R_UNIT 1 OHM
*L_UNIT 1 HENRY

*NAME_MAP
*1 io_in[0]
*2 io_in[10]
*3 io_in[11]
*4 io_in[12]
*5 io_in[13]
*6 io_in[14]
*7 io_in[15]
*8 io_in[16]
*9 io_in[17]
*10 io_in[18]
*11 io_in[19]
*12 io_in[1]
*13 io_in[20]
*14 io_in[21]
*15 io_in[22]
*16 io_in[23]
*17 io_in[24]
*18 io_in[25]
*19 io_in[26]
*20 io_in[27]
*21 io_in[28]
*22 io_in[29]
*23 io_in[2]
*24 io_in[30]
*25 io_in[31]
*26 io_in[32]
*27 io_in[33]
*28 io_in[34]
*29 io_in[35]
*30 io_in[36]
*31 io_in[37]
*32 io_in[3]
*33 io_in[4]
*34 io_in[5]
*35 io_in[6]
*36 io_in[7]
*37 io_in[8]
*38 io_in[9]
*39 net143
*40 net153
*41 net154
*42 net155
*43 net156
*44 net157
*45 net158
*46 net159
*47 net160
*48 net161
*49 net162
*50 net144
*51 net163
*52 net164
*53 net165
*54 net166
*55 net167
*56 net168
*57 net169
*58 net170
*59 net171
*60 net172
*61 net145
*62 net173
*63 net174
*64 net175
*65 net176
*66 net177
*67 net178
*68 net179
*69 net180
*70 net146
*71 net147
*72 net148
*73 net149
*74 net150
*75 net151
*76 net152
*77 net105
*78 net115
*79 net116
*80 net117
*81 net118
*82 net119
*83 net120
*84 net121
*85 net122
*86 net123
*87 net124
*88 net106
*89 net125
*90 net126
*91 net127
*92 net128
*93 net129
*94 net130
*95 net131
*96 net132
*97 net133
*98 net134
*99 net107
*100 net135
*101 net136
*102 net137
*103 net138
*104 net139
*105 net140
*106 net141
*107 net142
*108 net108
*109 net109
*110 net110
*111 net111
*112 net112
*113 net113
*114 net114
*115 net102
*116 net103
*117 net104
*118 la_data_in[0]
*119 la_data_in[10]
*120 la_data_in[11]
*121 la_data_in[12]
*122 la_data_in[13]
*123 la_data_in[14]
*124 la_data_in[15]
*125 la_data_in[16]
*126 la_data_in[17]
*127 la_data_in[18]
*128 la_data_in[19]
*129 la_data_in[1]
*130 la_data_in[20]
*131 la_data_in[21]
*132 la_data_in[22]
*133 la_data_in[23]
*134 la_data_in[24]
*135 la_data_in[25]
*136 la_data_in[26]
*137 la_data_in[27]
*138 la_data_in[28]
*139 la_data_in[29]
*140 la_data_in[2]
*141 la_data_in[30]
*142 la_data_in[31]
*143 la_data_in[32]
*144 la_data_in[33]
*145 la_data_in[34]
*146 la_data_in[35]
*147 la_data_in[36]
*148 la_data_in[37]
*149 la_data_in[38]
*150 la_data_in[39]
*151 la_data_in[3]
*152 la_data_in[40]
*153 la_data_in[41]
*154 la_data_in[42]
*155 la_data_in[43]
*156 la_data_in[44]
*157 la_data_in[45]
*158 la_data_in[46]
*159 la_data_in[47]
*160 la_data_in[48]
*161 la_data_in[49]
*162 la_data_in[4]
*163 la_data_in[50]
*164 la_data_in[51]
*165 la_data_in[52]
*166 la_data_in[53]
*167 la_data_in[54]
*168 la_data_in[55]
*169 la_data_in[56]
*170 la_data_in[57]
*171 la_data_in[58]
*172 la_data_in[59]
*173 la_data_in[5]
*174 la_data_in[60]
*175 la_data_in[61]
*176 la_data_in[62]
*177 la_data_in[63]
*178 la_data_in[6]
*179 la_data_in[7]
*180 la_data_in[8]
*181 la_data_in[9]
*182 net40
*183 net50
*184 net51
*185 net52
*186 net53
*187 net54
*188 net55
*189 net56
*190 net57
*191 net58
*192 net59
*193 net41
*194 net60
*195 net61
*196 net62
*197 net63
*198 net64
*199 net65
*200 net66
*201 net67
*202 net68
*203 net69
*204 net42
*205 net70
*206 net71
*207 la_data_out[32]
*208 la_data_out[33]
*209 net72
*210 net73
*211 net74
*212 net75
*213 net76
*214 net77
*215 net43
*216 net78
*217 net79
*218 net80
*219 net81
*220 net82
*221 net83
*222 net84
*223 net85
*224 net86
*225 net87
*226 net44
*227 net88
*228 net89
*229 net90
*230 net91
*231 net92
*232 net93
*233 net94
*234 net95
*235 net96
*236 net97
*237 net45
*238 net98
*239 net99
*240 net100
*241 net101
*242 net46
*243 net47
*244 net48
*245 net49
*246 la_oenb[0]
*247 la_oenb[10]
*248 la_oenb[11]
*249 la_oenb[12]
*250 la_oenb[13]
*251 la_oenb[14]
*252 la_oenb[15]
*253 la_oenb[16]
*254 la_oenb[17]
*255 la_oenb[18]
*256 la_oenb[19]
*257 la_oenb[1]
*258 la_oenb[20]
*259 la_oenb[21]
*260 la_oenb[22]
*261 la_oenb[23]
*262 la_oenb[24]
*263 la_oenb[25]
*264 la_oenb[26]
*265 la_oenb[27]
*266 la_oenb[28]
*267 la_oenb[29]
*268 la_oenb[2]
*269 la_oenb[30]
*270 la_oenb[31]
*271 la_oenb[32]
*272 la_oenb[33]
*273 la_oenb[34]
*274 la_oenb[35]
*275 la_oenb[36]
*276 la_oenb[37]
*277 la_oenb[38]
*278 la_oenb[39]
*279 la_oenb[3]
*280 la_oenb[40]
*281 la_oenb[41]
*282 la_oenb[42]
*283 la_oenb[43]
*284 la_oenb[44]
*285 la_oenb[45]
*286 la_oenb[46]
*287 la_oenb[47]
*288 la_oenb[48]
*289 la_oenb[49]
*290 la_oenb[4]
*291 la_oenb[50]
*292 la_oenb[51]
*293 la_oenb[52]
*294 la_oenb[53]
*295 la_oenb[54]
*296 la_oenb[55]
*297 la_oenb[56]
*298 la_oenb[57]
*299 la_oenb[58]
*300 la_oenb[59]
*301 la_oenb[5]
*302 la_oenb[60]
*303 la_oenb[61]
*304 la_oenb[62]
*305 la_oenb[63]
*306 la_oenb[6]
*307 la_oenb[7]
*308 la_oenb[8]
*309 la_oenb[9]
*312 wb_clk_i
*313 wb_rst_i
*314 net181
*315 wbs_adr_i[0]
*316 wbs_adr_i[10]
*317 wbs_adr_i[11]
*318 wbs_adr_i[12]
*319 wbs_adr_i[13]
*320 wbs_adr_i[14]
*321 wbs_adr_i[15]
*322 wbs_adr_i[16]
*323 wbs_adr_i[17]
*324 wbs_adr_i[18]
*325 wbs_adr_i[19]
*326 wbs_adr_i[1]
*327 wbs_adr_i[20]
*328 wbs_adr_i[21]
*329 wbs_adr_i[22]
*330 wbs_adr_i[23]
*331 wbs_adr_i[24]
*332 wbs_adr_i[25]
*333 wbs_adr_i[26]
*334 wbs_adr_i[27]
*335 wbs_adr_i[28]
*336 wbs_adr_i[29]
*337 wbs_adr_i[2]
*338 wbs_adr_i[30]
*339 wbs_adr_i[31]
*340 wbs_adr_i[3]
*341 wbs_adr_i[4]
*342 wbs_adr_i[5]
*343 wbs_adr_i[6]
*344 wbs_adr_i[7]
*345 wbs_adr_i[8]
*346 wbs_adr_i[9]
*347 wbs_cyc_i
*348 wbs_dat_i[0]
*349 wbs_dat_i[10]
*350 wbs_dat_i[11]
*351 wbs_dat_i[12]
*352 wbs_dat_i[13]
*353 wbs_dat_i[14]
*354 wbs_dat_i[15]
*355 wbs_dat_i[16]
*356 wbs_dat_i[17]
*357 wbs_dat_i[18]
*358 wbs_dat_i[19]
*359 wbs_dat_i[1]
*360 wbs_dat_i[20]
*361 wbs_dat_i[21]
*362 wbs_dat_i[22]
*363 wbs_dat_i[23]
*364 wbs_dat_i[24]
*365 wbs_dat_i[25]
*366 wbs_dat_i[26]
*367 wbs_dat_i[27]
*368 wbs_dat_i[28]
*369 wbs_dat_i[29]
*370 wbs_dat_i[2]
*371 wbs_dat_i[30]
*372 wbs_dat_i[31]
*373 wbs_dat_i[3]
*374 wbs_dat_i[4]
*375 wbs_dat_i[5]
*376 wbs_dat_i[6]
*377 wbs_dat_i[7]
*378 wbs_dat_i[8]
*379 wbs_dat_i[9]
*380 net182
*381 net192
*382 net193
*383 net194
*384 net195
*385 net196
*386 net197
*387 net198
*388 net199
*389 net200
*390 net201
*391 net183
*392 net202
*393 net203
*394 net204
*395 net205
*396 net206
*397 net207
*398 net208
*399 net209
*400 net210
*401 net211
*402 net184
*403 net212
*404 net213
*405 net185
*406 net186
*407 net187
*408 net188
*409 net189
*410 net190
*411 net191
*412 wbs_sel_i[0]
*413 wbs_sel_i[1]
*414 wbs_sel_i[2]
*415 wbs_sel_i[3]
*416 wbs_stb_i
*417 wbs_we_i
*418 _000_
*419 _001_
*420 _002_
*421 net1
*422 net10
*423 net11
*424 net12
*425 net13
*426 net14
*427 net15
*428 net16
*429 net17
*430 net18
*431 net19
*432 net2
*433 net20
*434 net21
*435 net214
*436 net215
*437 net22
*438 net23
*439 net24
*440 net25
*441 net26
*442 net27
*443 net28
*444 net29
*445 net3
*446 net30
*447 net31
*448 net32
*449 net33
*450 net34
*451 net35
*452 net36
*453 net37
*454 net38
*455 net39
*456 net4
*457 net5
*458 net6
*459 net7
*460 net8
*461 net9
*462 u_inj\.outn
*463 u_inj\.outp
*464 u_inj\.signal_n
*465 u_inj\.trim_n_r\[0\]
*466 u_inj\.trim_n_r\[1\]
*467 u_inj\.trim_n_r\[2\]
*468 u_inj\.trim_n_r\[3\]
*469 u_inj\.trim_p_r\[0\]
*470 u_inj\.trim_p_r\[1\]
*471 u_inj\.trim_p_r\[2\]
*472 u_inj\.trim_p_r\[3\]
*473 ANTENNA__030__I
*474 ANTENNA__031__A1
*475 ANTENNA__033__CLK
*476 ANTENNA__034__CLK
*477 ANTENNA__035__CLK
*478 ANTENNA__035__D
*479 ANTENNA__036__CLK
*480 ANTENNA__036__D
*481 ANTENNA__037__CLK
*482 ANTENNA__037__D
*483 ANTENNA__038__CLK
*484 ANTENNA__038__D
*485 ANTENNA__039__CLK
*486 ANTENNA__039__D
*487 ANTENNA__040__CLK
*488 ANTENNA__040__D
*489 ANTENNA__242__I
*490 ANTENNA__243__I
*491 ANTENNA_fanout13_I
*492 ANTENNA_input10_I
*493 ANTENNA_input1_I
*494 ANTENNA_input2_I
*495 ANTENNA_input3_I
*496 ANTENNA_input4_I
*497 ANTENNA_input5_I
*498 ANTENNA_input6_I
*499 ANTENNA_input7_I
*500 ANTENNA_input8_I
*501 ANTENNA_input9_I
*502 ANTENNA_u_inj\.gen_PU\[0\]\.pun_I
*503 ANTENNA_u_inj\.gen_PU\[0\]\.pup_I
*504 ANTENNA_u_inj\.gen_PU\[10\]\.pun_I
*505 ANTENNA_u_inj\.gen_PU\[10\]\.pup_I
*506 ANTENNA_u_inj\.gen_PU\[11\]\.pun_I
*507 ANTENNA_u_inj\.gen_PU\[12\]\.pun_I
*508 ANTENNA_u_inj\.gen_PU\[12\]\.pup_I
*509 ANTENNA_u_inj\.gen_PU\[13\]\.pun_I
*510 ANTENNA_u_inj\.gen_PU\[13\]\.pup_I
*511 ANTENNA_u_inj\.gen_PU\[14\]\.pun_I
*512 ANTENNA_u_inj\.gen_PU\[14\]\.pup_I
*513 ANTENNA_u_inj\.gen_PU\[15\]\.pun_I
*514 ANTENNA_u_inj\.gen_PU\[15\]\.pup_I
*515 ANTENNA_u_inj\.gen_PU\[16\]\.pun_I
*516 ANTENNA_u_inj\.gen_PU\[16\]\.pup_I
*517 ANTENNA_u_inj\.gen_PU\[17\]\.pun_I
*518 ANTENNA_u_inj\.gen_PU\[17\]\.pup_I
*519 ANTENNA_u_inj\.gen_PU\[18\]\.pun_I
*520 ANTENNA_u_inj\.gen_PU\[18\]\.pup_I
*521 ANTENNA_u_inj\.gen_PU\[1\]\.pun_I
*522 ANTENNA_u_inj\.gen_PU\[1\]\.pup_I
*523 ANTENNA_u_inj\.gen_PU\[2\]\.pun_I
*524 ANTENNA_u_inj\.gen_PU\[2\]\.pup_I
*525 ANTENNA_u_inj\.gen_PU\[3\]\.pun_I
*526 ANTENNA_u_inj\.gen_PU\[4\]\.pun_I
*527 ANTENNA_u_inj\.gen_PU\[4\]\.pup_I
*528 ANTENNA_u_inj\.gen_PU\[5\]\.pun_I
*529 ANTENNA_u_inj\.gen_PU\[5\]\.pup_I
*530 ANTENNA_u_inj\.gen_PU\[6\]\.pun_I
*531 ANTENNA_u_inj\.gen_PU\[6\]\.pup_I
*532 ANTENNA_u_inj\.gen_PU\[7\]\.pup_I
*533 ANTENNA_u_inj\.gen_PU\[8\]\.pup_I
*534 ANTENNA_u_inj\.gen_TRIM\[0\]\.ptrimn_I
*535 ANTENNA_u_inj\.gen_TRIM\[0\]\.ptrimp_I
*536 ANTENNA_u_inj\.gen_TRIM\[1\]\.ptrimn_I
*537 ANTENNA_u_inj\.gen_TRIM\[1\]\.ptrimp_I
*538 ANTENNA_u_inj\.gen_TRIM\[2\]\.ptrimn_I
*539 ANTENNA_u_inj\.gen_TRIM\[2\]\.ptrimp_I
*540 ANTENNA_u_inj\.gen_TRIM\[3\]\.ptrimn_I
*541 ANTENNA_u_inj\.gen_TRIM\[3\]\.ptrimp_I
*542 FILLER_0_1001
*543 FILLER_0_1009
*544 FILLER_0_1013
*545 FILLER_0_1017
*546 FILLER_0_102
*547 FILLER_0_1022
*548 FILLER_0_1026
*549 FILLER_0_1031
*550 FILLER_0_1039
*551 FILLER_0_104
*552 FILLER_0_1041
*553 FILLER_0_1046
*554 FILLER_0_1052
*555 FILLER_0_107
*556 FILLER_0_1084
*557 FILLER_0_1087
*558 FILLER_0_1092
*559 FILLER_0_1100
*560 FILLER_0_1106
*561 FILLER_0_1114
*562 FILLER_0_1118
*563 FILLER_0_112
*564 FILLER_0_1122
*565 FILLER_0_1127
*566 FILLER_0_1131
*567 FILLER_0_1136
*568 FILLER_0_1144
*569 FILLER_0_1146
*570 FILLER_0_1151
*571 FILLER_0_1157
*572 FILLER_0_1161
*573 FILLER_0_1166
*574 FILLER_0_1174
*575 FILLER_0_1176
*576 FILLER_0_1181
*577 FILLER_0_1189
*578 FILLER_0_1192
*579 FILLER_0_1197
*580 FILLER_0_120
*581 FILLER_0_1205
*582 FILLER_0_1211
*583 FILLER_0_1219
*584 FILLER_0_1223
*585 FILLER_0_1227
*586 FILLER_0_1232
*587 FILLER_0_1236
*588 FILLER_0_1241
*589 FILLER_0_1249
*590 FILLER_0_1251
*591 FILLER_0_1256
*592 FILLER_0_126
*593 FILLER_0_1262
*594 FILLER_0_1266
*595 FILLER_0_1271
*596 FILLER_0_1279
*597 FILLER_0_1281
*598 FILLER_0_1286
*599 FILLER_0_1294
*600 FILLER_0_1297
*601 FILLER_0_1302
*602 FILLER_0_1310
*603 FILLER_0_1316
*604 FILLER_0_1324
*605 FILLER_0_1328
*606 FILLER_0_1332
*607 FILLER_0_1337
*608 FILLER_0_134
*609 FILLER_0_1341
*610 FILLER_0_1346
*611 FILLER_0_1354
*612 FILLER_0_1356
*613 FILLER_0_1361
*614 FILLER_0_1367
*615 FILLER_0_1371
*616 FILLER_0_1376
*617 FILLER_0_138
*618 FILLER_0_1384
*619 FILLER_0_1386
*620 FILLER_0_1391
*621 FILLER_0_1399
*622 FILLER_0_1402
*623 FILLER_0_1407
*624 FILLER_0_1415
*625 FILLER_0_142
*626 FILLER_0_1421
*627 FILLER_0_1429
*628 FILLER_0_1433
*629 FILLER_0_1437
*630 FILLER_0_1442
*631 FILLER_0_1446
*632 FILLER_0_1451
*633 FILLER_0_1459
*634 FILLER_0_1461
*635 FILLER_0_1466
*636 FILLER_0_147
*637 FILLER_0_1472
*638 FILLER_0_1476
*639 FILLER_0_1481
*640 FILLER_0_1489
*641 FILLER_0_1491
*642 FILLER_0_1496
*643 FILLER_0_1504
*644 FILLER_0_1507
*645 FILLER_0_1512
*646 FILLER_0_1520
*647 FILLER_0_1526
*648 FILLER_0_1530
*649 FILLER_0_1536
*650 FILLER_0_1542
*651 FILLER_0_1547
*652 FILLER_0_155
*653 FILLER_0_1553
*654 FILLER_0_1569
*655 FILLER_0_1573
*656 FILLER_0_1577
*657 FILLER_0_159
*658 FILLER_0_161
*659 FILLER_0_166
*660 FILLER_0_174
*661 FILLER_0_177
*662 FILLER_0_182
*663 FILLER_0_190
*664 FILLER_0_196
*665 FILLER_0_2
*666 FILLER_0_204
*667 FILLER_0_208
*668 FILLER_0_212
*669 FILLER_0_217
*670 FILLER_0_221
*671 FILLER_0_226
*672 FILLER_0_234
*673 FILLER_0_236
*674 FILLER_0_241
*675 FILLER_0_247
*676 FILLER_0_251
*677 FILLER_0_256
*678 FILLER_0_264
*679 FILLER_0_266
*680 FILLER_0_271
*681 FILLER_0_279
*682 FILLER_0_282
*683 FILLER_0_287
*684 FILLER_0_295
*685 FILLER_0_301
*686 FILLER_0_309
*687 FILLER_0_313
*688 FILLER_0_317
*689 FILLER_0_322
*690 FILLER_0_326
*691 FILLER_0_331
*692 FILLER_0_339
*693 FILLER_0_34
*694 FILLER_0_341
*695 FILLER_0_346
*696 FILLER_0_352
*697 FILLER_0_356
*698 FILLER_0_361
*699 FILLER_0_369
*700 FILLER_0_37
*701 FILLER_0_371
*702 FILLER_0_376
*703 FILLER_0_384
*704 FILLER_0_387
*705 FILLER_0_392
*706 FILLER_0_400
*707 FILLER_0_406
*708 FILLER_0_414
*709 FILLER_0_418
*710 FILLER_0_422
*711 FILLER_0_427
*712 FILLER_0_431
*713 FILLER_0_436
*714 FILLER_0_444
*715 FILLER_0_446
*716 FILLER_0_45
*717 FILLER_0_451
*718 FILLER_0_457
*719 FILLER_0_461
*720 FILLER_0_466
*721 FILLER_0_474
*722 FILLER_0_476
*723 FILLER_0_481
*724 FILLER_0_489
*725 FILLER_0_49
*726 FILLER_0_492
*727 FILLER_0_497
*728 FILLER_0_505
*729 FILLER_0_51
*730 FILLER_0_511
*731 FILLER_0_519
*732 FILLER_0_523
*733 FILLER_0_527
*734 FILLER_0_532
*735 FILLER_0_536
*736 FILLER_0_541
*737 FILLER_0_549
*738 FILLER_0_551
*739 FILLER_0_556
*740 FILLER_0_56
*741 FILLER_0_562
*742 FILLER_0_566
*743 FILLER_0_571
*744 FILLER_0_575
*745 FILLER_0_581
*746 FILLER_0_589
*747 FILLER_0_593
*748 FILLER_0_597
*749 FILLER_0_602
*750 FILLER_0_606
*751 FILLER_0_611
*752 FILLER_0_619
*753 FILLER_0_621
*754 FILLER_0_626
*755 FILLER_0_632
*756 FILLER_0_636
*757 FILLER_0_64
*758 FILLER_0_641
*759 FILLER_0_649
*760 FILLER_0_651
*761 FILLER_0_656
*762 FILLER_0_664
*763 FILLER_0_667
*764 FILLER_0_672
*765 FILLER_0_68
*766 FILLER_0_680
*767 FILLER_0_686
*768 FILLER_0_694
*769 FILLER_0_698
*770 FILLER_0_702
*771 FILLER_0_707
*772 FILLER_0_711
*773 FILLER_0_716
*774 FILLER_0_72
*775 FILLER_0_724
*776 FILLER_0_726
*777 FILLER_0_731
*778 FILLER_0_737
*779 FILLER_0_741
*780 FILLER_0_746
*781 FILLER_0_754
*782 FILLER_0_756
*783 FILLER_0_761
*784 FILLER_0_769
*785 FILLER_0_772
*786 FILLER_0_777
*787 FILLER_0_785
*788 FILLER_0_791
*789 FILLER_0_799
*790 FILLER_0_80
*791 FILLER_0_803
*792 FILLER_0_807
*793 FILLER_0_812
*794 FILLER_0_816
*795 FILLER_0_821
*796 FILLER_0_829
*797 FILLER_0_831
*798 FILLER_0_836
*799 FILLER_0_842
*800 FILLER_0_846
*801 FILLER_0_851
*802 FILLER_0_859
*803 FILLER_0_86
*804 FILLER_0_861
*805 FILLER_0_866
*806 FILLER_0_874
*807 FILLER_0_877
*808 FILLER_0_882
*809 FILLER_0_890
*810 FILLER_0_896
*811 FILLER_0_904
*812 FILLER_0_908
*813 FILLER_0_912
*814 FILLER_0_917
*815 FILLER_0_921
*816 FILLER_0_926
*817 FILLER_0_934
*818 FILLER_0_936
*819 FILLER_0_941
*820 FILLER_0_947
*821 FILLER_0_951
*822 FILLER_0_956
*823 FILLER_0_964
*824 FILLER_0_966
*825 FILLER_0_971
*826 FILLER_0_979
*827 FILLER_0_982
*828 FILLER_0_987
*829 FILLER_0_995
*830 FILLER_10_101
*831 FILLER_10_1024
*832 FILLER_10_1028
*833 FILLER_10_1031
*834 FILLER_10_105
*835 FILLER_10_108
*836 FILLER_10_1095
*837 FILLER_10_1099
*838 FILLER_10_1102
*839 FILLER_10_1166
*840 FILLER_10_1170
*841 FILLER_10_1173
*842 FILLER_10_1237
*843 FILLER_10_1241
*844 FILLER_10_1244
*845 FILLER_10_1308
*846 FILLER_10_1312
*847 FILLER_10_1315
*848 FILLER_10_1379
*849 FILLER_10_1383
*850 FILLER_10_1386
*851 FILLER_10_140
*852 FILLER_10_144
*853 FILLER_10_1450
*854 FILLER_10_1454
*855 FILLER_10_1457
*856 FILLER_10_152
*857 FILLER_10_1521
*858 FILLER_10_1525
*859 FILLER_10_1528
*860 FILLER_10_1560
*861 FILLER_10_1576
*862 FILLER_10_1580
*863 FILLER_10_160
*864 FILLER_10_168
*865 FILLER_10_176
*866 FILLER_10_179
*867 FILLER_10_187
*868 FILLER_10_195
*869 FILLER_10_2
*870 FILLER_10_203
*871 FILLER_10_207
*872 FILLER_10_211
*873 FILLER_10_221
*874 FILLER_10_227
*875 FILLER_10_243
*876 FILLER_10_247
*877 FILLER_10_250
*878 FILLER_10_314
*879 FILLER_10_318
*880 FILLER_10_321
*881 FILLER_10_337
*882 FILLER_10_34
*883 FILLER_10_342
*884 FILLER_10_348
*885 FILLER_10_354
*886 FILLER_10_360
*887 FILLER_10_366
*888 FILLER_10_37
*889 FILLER_10_372
*890 FILLER_10_388
*891 FILLER_10_392
*892 FILLER_10_424
*893 FILLER_10_440
*894 FILLER_10_448
*895 FILLER_10_453
*896 FILLER_10_459
*897 FILLER_10_463
*898 FILLER_10_468
*899 FILLER_10_500
*900 FILLER_10_516
*901 FILLER_10_524
*902 FILLER_10_526
*903 FILLER_10_531
*904 FILLER_10_534
*905 FILLER_10_539
*906 FILLER_10_545
*907 FILLER_10_553
*908 FILLER_10_559
*909 FILLER_10_591
*910 FILLER_10_599
*911 FILLER_10_605
*912 FILLER_10_669
*913 FILLER_10_673
*914 FILLER_10_676
*915 FILLER_10_740
*916 FILLER_10_744
*917 FILLER_10_747
*918 FILLER_10_811
*919 FILLER_10_815
*920 FILLER_10_818
*921 FILLER_10_882
*922 FILLER_10_886
*923 FILLER_10_889
*924 FILLER_10_953
*925 FILLER_10_957
*926 FILLER_10_960
*927 FILLER_11_105
*928 FILLER_11_1060
*929 FILLER_11_1064
*930 FILLER_11_1067
*931 FILLER_11_1131
*932 FILLER_11_1135
*933 FILLER_11_1138
*934 FILLER_11_1202
*935 FILLER_11_1206
*936 FILLER_11_1209
*937 FILLER_11_121
*938 FILLER_11_1273
*939 FILLER_11_1277
*940 FILLER_11_1280
*941 FILLER_11_129
*942 FILLER_11_133
*943 FILLER_11_1344
*944 FILLER_11_1348
*945 FILLER_11_1351
*946 FILLER_11_141
*947 FILLER_11_1415
*948 FILLER_11_1419
*949 FILLER_11_1422
*950 FILLER_11_144
*951 FILLER_11_147
*952 FILLER_11_1486
*953 FILLER_11_1490
*954 FILLER_11_1493
*955 FILLER_11_155
*956 FILLER_11_1557
*957 FILLER_11_1561
*958 FILLER_11_1564
*959 FILLER_11_1580
*960 FILLER_11_163
*961 FILLER_11_171
*962 FILLER_11_179
*963 FILLER_11_187
*964 FILLER_11_195
*965 FILLER_11_2
*966 FILLER_11_203
*967 FILLER_11_211
*968 FILLER_11_215
*969 FILLER_11_224
*970 FILLER_11_232
*971 FILLER_11_238
*972 FILLER_11_270
*973 FILLER_11_278
*974 FILLER_11_282
*975 FILLER_11_286
*976 FILLER_11_318
*977 FILLER_11_334
*978 FILLER_11_336
*979 FILLER_11_341
*980 FILLER_11_347
*981 FILLER_11_353
*982 FILLER_11_357
*983 FILLER_11_362
*984 FILLER_11_428
*985 FILLER_11_492
*986 FILLER_11_496
*987 FILLER_11_499
*988 FILLER_11_515
*989 FILLER_11_523
*990 FILLER_11_528
*991 FILLER_11_534
*992 FILLER_11_540
*993 FILLER_11_546
*994 FILLER_11_550
*995 FILLER_11_555
*996 FILLER_11_561
*997 FILLER_11_565
*998 FILLER_11_567
*999 FILLER_11_570
*1000 FILLER_11_634
*1001 FILLER_11_638
*1002 FILLER_11_641
*1003 FILLER_11_66
*1004 FILLER_11_70
*1005 FILLER_11_705
*1006 FILLER_11_709
*1007 FILLER_11_712
*1008 FILLER_11_73
*1009 FILLER_11_776
*1010 FILLER_11_780
*1011 FILLER_11_783
*1012 FILLER_11_847
*1013 FILLER_11_851
*1014 FILLER_11_854
*1015 FILLER_11_918
*1016 FILLER_11_922
*1017 FILLER_11_925
*1018 FILLER_11_989
*1019 FILLER_11_993
*1020 FILLER_11_996
*1021 FILLER_12_101
*1022 FILLER_12_1024
*1023 FILLER_12_1028
*1024 FILLER_12_1031
*1025 FILLER_12_105
*1026 FILLER_12_108
*1027 FILLER_12_1095
*1028 FILLER_12_1099
*1029 FILLER_12_1102
*1030 FILLER_12_1166
*1031 FILLER_12_1170
*1032 FILLER_12_1173
*1033 FILLER_12_1237
*1034 FILLER_12_124
*1035 FILLER_12_1241
*1036 FILLER_12_1244
*1037 FILLER_12_1308
*1038 FILLER_12_1312
*1039 FILLER_12_1315
*1040 FILLER_12_132
*1041 FILLER_12_1379
*1042 FILLER_12_1383
*1043 FILLER_12_1386
*1044 FILLER_12_1450
*1045 FILLER_12_1454
*1046 FILLER_12_1457
*1047 FILLER_12_150
*1048 FILLER_12_1521
*1049 FILLER_12_1525
*1050 FILLER_12_1528
*1051 FILLER_12_1560
*1052 FILLER_12_1576
*1053 FILLER_12_1580
*1054 FILLER_12_160
*1055 FILLER_12_168
*1056 FILLER_12_176
*1057 FILLER_12_179
*1058 FILLER_12_2
*1059 FILLER_12_206
*1060 FILLER_12_214
*1061 FILLER_12_218
*1062 FILLER_12_226
*1063 FILLER_12_242
*1064 FILLER_12_246
*1065 FILLER_12_250
*1066 FILLER_12_314
*1067 FILLER_12_318
*1068 FILLER_12_321
*1069 FILLER_12_337
*1070 FILLER_12_34
*1071 FILLER_12_349
*1072 FILLER_12_355
*1073 FILLER_12_37
*1074 FILLER_12_387
*1075 FILLER_12_389
*1076 FILLER_12_392
*1077 FILLER_12_456
*1078 FILLER_12_460
*1079 FILLER_12_463
*1080 FILLER_12_527
*1081 FILLER_12_531
*1082 FILLER_12_534
*1083 FILLER_12_542
*1084 FILLER_12_548
*1085 FILLER_12_554
*1086 FILLER_12_586
*1087 FILLER_12_602
*1088 FILLER_12_605
*1089 FILLER_12_669
*1090 FILLER_12_673
*1091 FILLER_12_676
*1092 FILLER_12_740
*1093 FILLER_12_744
*1094 FILLER_12_747
*1095 FILLER_12_811
*1096 FILLER_12_815
*1097 FILLER_12_818
*1098 FILLER_12_882
*1099 FILLER_12_886
*1100 FILLER_12_889
*1101 FILLER_12_953
*1102 FILLER_12_957
*1103 FILLER_12_960
*1104 FILLER_13_105
*1105 FILLER_13_1060
*1106 FILLER_13_1064
*1107 FILLER_13_1067
*1108 FILLER_13_1131
*1109 FILLER_13_1135
*1110 FILLER_13_1138
*1111 FILLER_13_1202
*1112 FILLER_13_1206
*1113 FILLER_13_1209
*1114 FILLER_13_121
*1115 FILLER_13_1273
*1116 FILLER_13_1277
*1117 FILLER_13_1280
*1118 FILLER_13_129
*1119 FILLER_13_133
*1120 FILLER_13_1344
*1121 FILLER_13_1348
*1122 FILLER_13_1351
*1123 FILLER_13_137
*1124 FILLER_13_141
*1125 FILLER_13_1415
*1126 FILLER_13_1419
*1127 FILLER_13_1422
*1128 FILLER_13_144
*1129 FILLER_13_148
*1130 FILLER_13_1486
*1131 FILLER_13_1490
*1132 FILLER_13_1493
*1133 FILLER_13_152
*1134 FILLER_13_1557
*1135 FILLER_13_156
*1136 FILLER_13_1561
*1137 FILLER_13_1564
*1138 FILLER_13_1580
*1139 FILLER_13_164
*1140 FILLER_13_172
*1141 FILLER_13_180
*1142 FILLER_13_2
*1143 FILLER_13_208
*1144 FILLER_13_212
*1145 FILLER_13_215
*1146 FILLER_13_279
*1147 FILLER_13_283
*1148 FILLER_13_286
*1149 FILLER_13_350
*1150 FILLER_13_354
*1151 FILLER_13_357
*1152 FILLER_13_421
*1153 FILLER_13_425
*1154 FILLER_13_428
*1155 FILLER_13_492
*1156 FILLER_13_496
*1157 FILLER_13_499
*1158 FILLER_13_531
*1159 FILLER_13_535
*1160 FILLER_13_541
*1161 FILLER_13_557
*1162 FILLER_13_565
*1163 FILLER_13_567
*1164 FILLER_13_570
*1165 FILLER_13_634
*1166 FILLER_13_638
*1167 FILLER_13_641
*1168 FILLER_13_66
*1169 FILLER_13_70
*1170 FILLER_13_705
*1171 FILLER_13_709
*1172 FILLER_13_712
*1173 FILLER_13_73
*1174 FILLER_13_776
*1175 FILLER_13_780
*1176 FILLER_13_783
*1177 FILLER_13_847
*1178 FILLER_13_851
*1179 FILLER_13_854
*1180 FILLER_13_918
*1181 FILLER_13_922
*1182 FILLER_13_925
*1183 FILLER_13_989
*1184 FILLER_13_993
*1185 FILLER_13_996
*1186 FILLER_14_1024
*1187 FILLER_14_1028
*1188 FILLER_14_103
*1189 FILLER_14_1031
*1190 FILLER_14_105
*1191 FILLER_14_108
*1192 FILLER_14_1095
*1193 FILLER_14_1099
*1194 FILLER_14_1102
*1195 FILLER_14_116
*1196 FILLER_14_1166
*1197 FILLER_14_1170
*1198 FILLER_14_1173
*1199 FILLER_14_120
*1200 FILLER_14_1237
*1201 FILLER_14_1241
*1202 FILLER_14_1244
*1203 FILLER_14_1308
*1204 FILLER_14_1312
*1205 FILLER_14_1315
*1206 FILLER_14_1379
*1207 FILLER_14_1383
*1208 FILLER_14_1386
*1209 FILLER_14_139
*1210 FILLER_14_1450
*1211 FILLER_14_1454
*1212 FILLER_14_1457
*1213 FILLER_14_1521
*1214 FILLER_14_1525
*1215 FILLER_14_1528
*1216 FILLER_14_1560
*1217 FILLER_14_1576
*1218 FILLER_14_158
*1219 FILLER_14_1580
*1220 FILLER_14_164
*1221 FILLER_14_168
*1222 FILLER_14_176
*1223 FILLER_14_179
*1224 FILLER_14_181
*1225 FILLER_14_192
*1226 FILLER_14_2
*1227 FILLER_14_200
*1228 FILLER_14_204
*1229 FILLER_14_236
*1230 FILLER_14_244
*1231 FILLER_14_250
*1232 FILLER_14_254
*1233 FILLER_14_257
*1234 FILLER_14_261
*1235 FILLER_14_267
*1236 FILLER_14_285
*1237 FILLER_14_291
*1238 FILLER_14_310
*1239 FILLER_14_318
*1240 FILLER_14_321
*1241 FILLER_14_34
*1242 FILLER_14_37
*1243 FILLER_14_385
*1244 FILLER_14_389
*1245 FILLER_14_392
*1246 FILLER_14_456
*1247 FILLER_14_460
*1248 FILLER_14_463
*1249 FILLER_14_469
*1250 FILLER_14_501
*1251 FILLER_14_517
*1252 FILLER_14_525
*1253 FILLER_14_529
*1254 FILLER_14_531
*1255 FILLER_14_534
*1256 FILLER_14_542
*1257 FILLER_14_546
*1258 FILLER_14_548
*1259 FILLER_14_566
*1260 FILLER_14_598
*1261 FILLER_14_602
*1262 FILLER_14_605
*1263 FILLER_14_621
*1264 FILLER_14_629
*1265 FILLER_14_633
*1266 FILLER_14_651
*1267 FILLER_14_667
*1268 FILLER_14_671
*1269 FILLER_14_673
*1270 FILLER_14_676
*1271 FILLER_14_69
*1272 FILLER_14_740
*1273 FILLER_14_744
*1274 FILLER_14_747
*1275 FILLER_14_763
*1276 FILLER_14_771
*1277 FILLER_14_773
*1278 FILLER_14_791
*1279 FILLER_14_807
*1280 FILLER_14_815
*1281 FILLER_14_818
*1282 FILLER_14_85
*1283 FILLER_14_88
*1284 FILLER_14_882
*1285 FILLER_14_886
*1286 FILLER_14_889
*1287 FILLER_14_953
*1288 FILLER_14_957
*1289 FILLER_14_96
*1290 FILLER_14_960
*1291 FILLER_14_98
*1292 FILLER_15_1060
*1293 FILLER_15_1064
*1294 FILLER_15_1067
*1295 FILLER_15_1131
*1296 FILLER_15_1135
*1297 FILLER_15_1138
*1298 FILLER_15_117
*1299 FILLER_15_1202
*1300 FILLER_15_1206
*1301 FILLER_15_1209
*1302 FILLER_15_121
*1303 FILLER_15_1273
*1304 FILLER_15_1277
*1305 FILLER_15_1280
*1306 FILLER_15_129
*1307 FILLER_15_133
*1308 FILLER_15_1344
*1309 FILLER_15_1348
*1310 FILLER_15_1351
*1311 FILLER_15_139
*1312 FILLER_15_141
*1313 FILLER_15_1415
*1314 FILLER_15_1419
*1315 FILLER_15_1422
*1316 FILLER_15_144
*1317 FILLER_15_1486
*1318 FILLER_15_1490
*1319 FILLER_15_1493
*1320 FILLER_15_1557
*1321 FILLER_15_1561
*1322 FILLER_15_1564
*1323 FILLER_15_1572
*1324 FILLER_15_1580
*1325 FILLER_15_162
*1326 FILLER_15_166
*1327 FILLER_15_168
*1328 FILLER_15_171
*1329 FILLER_15_179
*1330 FILLER_15_187
*1331 FILLER_15_195
*1332 FILLER_15_199
*1333 FILLER_15_2
*1334 FILLER_15_207
*1335 FILLER_15_211
*1336 FILLER_15_215
*1337 FILLER_15_219
*1338 FILLER_15_221
*1339 FILLER_15_224
*1340 FILLER_15_255
*1341 FILLER_15_274
*1342 FILLER_15_280
*1343 FILLER_15_286
*1344 FILLER_15_288
*1345 FILLER_15_291
*1346 FILLER_15_310
*1347 FILLER_15_316
*1348 FILLER_15_320
*1349 FILLER_15_324
*1350 FILLER_15_340
*1351 FILLER_15_348
*1352 FILLER_15_352
*1353 FILLER_15_354
*1354 FILLER_15_357
*1355 FILLER_15_423
*1356 FILLER_15_425
*1357 FILLER_15_428
*1358 FILLER_15_432
*1359 FILLER_15_434
*1360 FILLER_15_439
*1361 FILLER_15_443
*1362 FILLER_15_448
*1363 FILLER_15_467
*1364 FILLER_15_473
*1365 FILLER_15_489
*1366 FILLER_15_499
*1367 FILLER_15_5
*1368 FILLER_15_515
*1369 FILLER_15_523
*1370 FILLER_15_526
*1371 FILLER_15_530
*1372 FILLER_15_532
*1373 FILLER_15_537
*1374 FILLER_15_545
*1375 FILLER_15_566
*1376 FILLER_15_570
*1377 FILLER_15_575
*1378 FILLER_15_641
*1379 FILLER_15_659
*1380 FILLER_15_667
*1381 FILLER_15_673
*1382 FILLER_15_677
*1383 FILLER_15_69
*1384 FILLER_15_708
*1385 FILLER_15_712
*1386 FILLER_15_73
*1387 FILLER_15_77
*1388 FILLER_15_776
*1389 FILLER_15_780
*1390 FILLER_15_783
*1391 FILLER_15_79
*1392 FILLER_15_801
*1393 FILLER_15_805
*1394 FILLER_15_808
*1395 FILLER_15_812
*1396 FILLER_15_817
*1397 FILLER_15_825
*1398 FILLER_15_831
*1399 FILLER_15_847
*1400 FILLER_15_851
*1401 FILLER_15_854
*1402 FILLER_15_86
*1403 FILLER_15_918
*1404 FILLER_15_922
*1405 FILLER_15_925
*1406 FILLER_15_989
*1407 FILLER_15_993
*1408 FILLER_15_996
*1409 FILLER_16_1017
*1410 FILLER_16_102
*1411 FILLER_16_1021
*1412 FILLER_16_1027
*1413 FILLER_16_1035
*1414 FILLER_16_104
*1415 FILLER_16_1041
*1416 FILLER_16_1049
*1417 FILLER_16_1052
*1418 FILLER_16_1060
*1419 FILLER_16_1064
*1420 FILLER_16_1069
*1421 FILLER_16_107
*1422 FILLER_16_1077
*1423 FILLER_16_1083
*1424 FILLER_16_1087
*1425 FILLER_16_110
*1426 FILLER_16_1103
*1427 FILLER_16_1111
*1428 FILLER_16_1119
*1429 FILLER_16_112
*1430 FILLER_16_1122
*1431 FILLER_16_1127
*1432 FILLER_16_1143
*1433 FILLER_16_1147
*1434 FILLER_16_1153
*1435 FILLER_16_1157
*1436 FILLER_16_1161
*1437 FILLER_16_1167
*1438 FILLER_16_117
*1439 FILLER_16_1183
*1440 FILLER_16_1187
*1441 FILLER_16_1189
*1442 FILLER_16_1192
*1443 FILLER_16_1197
*1444 FILLER_16_1209
*1445 FILLER_16_121
*1446 FILLER_16_1227
*1447 FILLER_16_1231
*1448 FILLER_16_1237
*1449 FILLER_16_1245
*1450 FILLER_16_125
*1451 FILLER_16_1251
*1452 FILLER_16_1259
*1453 FILLER_16_1262
*1454 FILLER_16_1270
*1455 FILLER_16_1274
*1456 FILLER_16_1279
*1457 FILLER_16_1287
*1458 FILLER_16_1293
*1459 FILLER_16_1297
*1460 FILLER_16_13
*1461 FILLER_16_1313
*1462 FILLER_16_1321
*1463 FILLER_16_1329
*1464 FILLER_16_133
*1465 FILLER_16_1332
*1466 FILLER_16_1337
*1467 FILLER_16_1353
*1468 FILLER_16_1357
*1469 FILLER_16_1363
*1470 FILLER_16_1367
*1471 FILLER_16_1371
*1472 FILLER_16_1377
*1473 FILLER_16_139
*1474 FILLER_16_1393
*1475 FILLER_16_1397
*1476 FILLER_16_1399
*1477 FILLER_16_1402
*1478 FILLER_16_1407
*1479 FILLER_16_1419
*1480 FILLER_16_142
*1481 FILLER_16_1437
*1482 FILLER_16_1441
*1483 FILLER_16_1447
*1484 FILLER_16_1455
*1485 FILLER_16_146
*1486 FILLER_16_1461
*1487 FILLER_16_1469
*1488 FILLER_16_1472
*1489 FILLER_16_1480
*1490 FILLER_16_1484
*1491 FILLER_16_1489
*1492 FILLER_16_1497
*1493 FILLER_16_1503
*1494 FILLER_16_1507
*1495 FILLER_16_1523
*1496 FILLER_16_1531
*1497 FILLER_16_1539
*1498 FILLER_16_1542
*1499 FILLER_16_1547
*1500 FILLER_16_156
*1501 FILLER_16_1563
*1502 FILLER_16_1567
*1503 FILLER_16_1573
*1504 FILLER_16_1577
*1505 FILLER_16_162
*1506 FILLER_16_166
*1507 FILLER_16_170
*1508 FILLER_16_174
*1509 FILLER_16_177
*1510 FILLER_16_184
*1511 FILLER_16_19
*1512 FILLER_16_190
*1513 FILLER_16_194
*1514 FILLER_16_196
*1515 FILLER_16_2
*1516 FILLER_16_201
*1517 FILLER_16_205
*1518 FILLER_16_209
*1519 FILLER_16_212
*1520 FILLER_16_219
*1521 FILLER_16_223
*1522 FILLER_16_229
*1523 FILLER_16_233
*1524 FILLER_16_237
*1525 FILLER_16_243
*1526 FILLER_16_247
*1527 FILLER_16_265
*1528 FILLER_16_27
*1529 FILLER_16_273
*1530 FILLER_16_279
*1531 FILLER_16_282
*1532 FILLER_16_284
*1533 FILLER_16_314
*1534 FILLER_16_317
*1535 FILLER_16_324
*1536 FILLER_16_33
*1537 FILLER_16_330
*1538 FILLER_16_332
*1539 FILLER_16_335
*1540 FILLER_16_343
*1541 FILLER_16_347
*1542 FILLER_16_349
*1543 FILLER_16_352
*1544 FILLER_16_357
*1545 FILLER_16_369
*1546 FILLER_16_37
*1547 FILLER_16_377
*1548 FILLER_16_381
*1549 FILLER_16_384
*1550 FILLER_16_387
*1551 FILLER_16_394
*1552 FILLER_16_400
*1553 FILLER_16_404
*1554 FILLER_16_406
*1555 FILLER_16_41
*1556 FILLER_16_411
*1557 FILLER_16_415
*1558 FILLER_16_419
*1559 FILLER_16_422
*1560 FILLER_16_424
*1561 FILLER_16_454
*1562 FILLER_16_457
*1563 FILLER_16_475
*1564 FILLER_16_481
*1565 FILLER_16_489
*1566 FILLER_16_49
*1567 FILLER_16_492
*1568 FILLER_16_497
*1569 FILLER_16_513
*1570 FILLER_16_517
*1571 FILLER_16_523
*1572 FILLER_16_527
*1573 FILLER_16_529
*1574 FILLER_16_559
*1575 FILLER_16_562
*1576 FILLER_16_568
*1577 FILLER_16_572
*1578 FILLER_16_574
*1579 FILLER_16_579
*1580 FILLER_16_585
*1581 FILLER_16_593
*1582 FILLER_16_597
*1583 FILLER_16_601
*1584 FILLER_16_607
*1585 FILLER_16_61
*1586 FILLER_16_615
*1587 FILLER_16_621
*1588 FILLER_16_629