* NGSPICE file created from caparray_s1_flat.ext - technology: gf180mcuC

.subckt caparray_s1_flat cap_series_gygyn cap_series_gygyp cap_series_gyn cap_series_gyp
+ cap_shunt_gyn cap_shunt_gyp cap_shunt_n cap_shunt_p tune_series_gy[0] tune_series_gy[1]
+ tune_series_gy[2] tune_series_gy[3] tune_series_gy[4] tune_series_gy[5] tune_series_gygy[0]
+ tune_series_gygy[1] tune_series_gygy[2] tune_series_gygy[3] tune_series_gygy[4]
+ tune_series_gygy[5] tune_shunt[0] tune_shunt[1] tune_shunt[2] tune_shunt[3] tune_shunt[4]
+ tune_shunt[5] tune_shunt[6] tune_shunt[7] tune_shunt_gy[0] tune_shunt_gy[1] tune_shunt_gy[2]
+ tune_shunt_gy[3] tune_shunt_gy[4] tune_shunt_gy[5] tune_shunt_gy[6] vss vdd
X0 a_32604_48983# a_32516_49080# vss vss nmos_6p0 w=0.82u l=1u
X1 a_3828_24856# tune_shunt[7] vss vss nmos_6p0 w=0.51u l=0.6u
X2 a_2500_50652# cap_shunt_n a_2708_50306# vdd pmos_6p0 w=1.2u l=0.5u
X3 a_24452_36540# cap_shunt_p a_24660_36194# vdd pmos_6p0 w=1.2u l=0.5u
X4 a_9428_18946# tune_shunt[7] vss vss nmos_6p0 w=0.51u l=0.6u
X5 a_16500_42812# cap_shunt_n a_16708_42466# vdd pmos_6p0 w=1.2u l=0.5u
X6 a_19524_10260# tune_series_gy[5] vdd vdd pmos_6p0 w=1.2u l=0.5u
X7 vss tune_shunt[5] a_9876_53080# vss nmos_6p0 w=0.51u l=0.6u
X8 vss cap_shunt_n a_19936_27992# vss nmos_6p0 w=0.82u l=0.6u
X9 a_6760_7124# cap_series_gyp a_6784_7608# vss nmos_6p0 w=0.82u l=0.6u
X10 a_7748_33058# cap_shunt_n a_7540_33404# vdd pmos_6p0 w=1.2u l=0.5u
X11 vdd a_33500_25896# a_33412_25940# vdd pmos_6p0 w=1.22u l=1u
X12 a_6292_15810# tune_shunt[5] vss vss nmos_6p0 w=0.51u l=0.6u
X13 a_31904_45944# cap_shunt_gyp a_31904_45540# vdd pmos_6p0 w=1.215u l=0.5u
X14 a_25572_27508# cap_shunt_p a_25780_27992# vdd pmos_6p0 w=1.2u l=0.5u
X15 vdd a_28124_5079# a_28036_5176# vdd pmos_6p0 w=1.22u l=1u
X16 a_31624_8316# cap_series_gygyn a_31436_8316# vdd pmos_6p0 w=1.2u l=0.5u
X17 vdd a_28572_31735# a_28484_31832# vdd pmos_6p0 w=1.22u l=1u
X18 a_33732_27992# cap_shunt_p a_34664_27992# vss nmos_6p0 w=0.82u l=0.6u
X19 a_24452_33404# cap_shunt_p a_24660_33058# vdd pmos_6p0 w=1.2u l=0.5u
X20 a_34308_19292# tune_series_gygy[5] vdd vdd pmos_6p0 w=1.2u l=0.5u
X21 a_35692_14964# tune_series_gygy[4] vdd vdd pmos_6p0 w=1.2u l=0.5u
X22 a_35292_52119# a_35204_52216# vss vss nmos_6p0 w=0.82u l=1u
X23 a_3620_43188# cap_shunt_p a_3828_43672# vdd pmos_6p0 w=1.2u l=0.5u
X24 vss cap_shunt_n a_19936_24856# vss nmos_6p0 w=0.82u l=0.6u
X25 vdd a_9644_7080# a_9556_7124# vdd pmos_6p0 w=1.22u l=1u
X26 vdd a_33500_22760# a_33412_22804# vdd pmos_6p0 w=1.22u l=1u
X27 a_19544_4772# cap_series_gyp vss vss nmos_6p0 w=0.82u l=0.6u
X28 a_22064_23288# cap_shunt_p a_20740_23288# vss nmos_6p0 w=0.82u l=0.6u
X29 a_8968_6340# cap_series_gyp a_7768_6748# vss nmos_6p0 w=0.82u l=0.6u
X30 a_34308_16156# tune_series_gygy[4] vdd vdd pmos_6p0 w=1.2u l=0.5u
X31 a_21316_3988# cap_series_gyn a_21524_4472# vdd pmos_6p0 w=1.2u l=0.5u
X32 a_35692_11828# tune_series_gygy[4] vdd vdd pmos_6p0 w=1.2u l=0.5u
X33 a_24660_11106# cap_series_gyp a_24452_11452# vdd pmos_6p0 w=1.2u l=0.5u
X34 vdd a_8860_11351# a_8772_11448# vdd pmos_6p0 w=1.22u l=1u
X35 vdd a_36636_40008# a_36548_40052# vdd pmos_6p0 w=1.22u l=1u
X36 vdd a_20620_45847# a_20532_45944# vdd pmos_6p0 w=1.22u l=1u
X37 vss tune_series_gy[3] a_29720_9884# vss nmos_6p0 w=0.51u l=0.6u
X38 a_19276_23895# a_19188_23992# vss vss nmos_6p0 w=0.82u l=1u
X39 a_10548_27992# cap_shunt_n a_12264_27992# vss nmos_6p0 w=0.82u l=0.6u
X40 vdd a_37868_23895# a_37780_23992# vdd pmos_6p0 w=1.22u l=1u
X41 a_7580_8316# tune_series_gy[2] vdd vdd pmos_6p0 w=1.2u l=0.5u
X42 a_7952_14180# cap_shunt_p a_6628_14242# vss nmos_6p0 w=0.82u l=0.6u
X43 a_13460_26424# cap_shunt_n a_13252_25940# vdd pmos_6p0 w=1.2u l=0.5u
X44 a_7748_42466# cap_shunt_n a_7540_42812# vdd pmos_6p0 w=1.2u l=0.5u
X45 vdd tune_shunt[7] a_9668_19668# vdd pmos_6p0 w=1.2u l=0.5u
X46 vss tune_shunt[4] a_17828_48376# vss nmos_6p0 w=0.51u l=0.6u
X47 a_32612_37762# cap_shunt_p a_32404_38108# vdd pmos_6p0 w=1.2u l=0.5u
X48 a_25572_36916# cap_shunt_p a_25780_37400# vdd pmos_6p0 w=1.2u l=0.5u
X49 a_3036_29032# a_2948_29076# vss vss nmos_6p0 w=0.82u l=1u
X50 a_3620_19668# tune_shunt[5] vdd vdd pmos_6p0 w=1.2u l=0.5u
X51 a_38092_35304# a_38004_35348# vss vss nmos_6p0 w=0.82u l=1u
X52 vss cap_shunt_p a_23856_23588# vss nmos_6p0 w=0.82u l=0.6u
X53 vss cap_shunt_p a_11200_17016# vss nmos_6p0 w=0.82u l=0.6u
X54 vdd a_20620_42711# a_20532_42808# vdd pmos_6p0 w=1.22u l=1u
X55 a_9204_51874# cap_shunt_n a_10920_51812# vss nmos_6p0 w=0.82u l=0.6u
X56 a_10548_24856# cap_shunt_n a_12264_24856# vss nmos_6p0 w=0.82u l=0.6u
X57 a_7952_11044# cap_shunt_n a_5844_11106# vss nmos_6p0 w=0.82u l=0.6u
X58 vdd a_37868_20759# a_37780_20856# vdd pmos_6p0 w=1.22u l=1u
X59 a_13460_23288# cap_shunt_n a_13252_22804# vdd pmos_6p0 w=1.2u l=0.5u
X60 a_11800_8692# cap_series_gyp a_11612_8692# vdd pmos_6p0 w=1.2u l=0.5u
X61 a_4704_49944# cap_shunt_p a_3380_49944# vss nmos_6p0 w=0.82u l=0.6u
X62 a_3036_25896# a_2948_25940# vss vss nmos_6p0 w=0.82u l=1u
X63 a_25780_15448# cap_series_gyp a_25572_14964# vdd pmos_6p0 w=1.2u l=0.5u
X64 a_13796_40898# tune_shunt[6] vss vss nmos_6p0 w=0.51u l=0.6u
X65 vdd tune_shunt[6] a_11460_44756# vdd pmos_6p0 w=1.2u l=0.5u
X66 a_24452_14588# tune_series_gy[5] vdd vdd pmos_6p0 w=1.2u l=0.5u
X67 a_35740_53687# a_35652_53784# vss vss nmos_6p0 w=0.82u l=1u
X68 vdd tune_shunt[6] a_10452_45948# vdd pmos_6p0 w=1.2u l=0.5u
X69 a_10660_6402# tune_series_gy[2] vss vss nmos_6p0 w=0.51u l=0.6u
X70 a_2724_8692# cap_shunt_n a_2932_9176# vdd pmos_6p0 w=1.2u l=0.5u
X71 vdd a_35628_33303# a_35540_33400# vdd pmos_6p0 w=1.22u l=1u
X72 a_3828_27992# cap_shunt_n a_3620_27508# vdd pmos_6p0 w=1.2u l=0.5u
X73 a_24452_8316# tune_series_gy[4] vdd vdd pmos_6p0 w=1.2u l=0.5u
X74 a_4828_52119# a_4740_52216# vss vss nmos_6p0 w=0.82u l=1u
X75 a_25780_12312# cap_series_gyp a_25572_11828# vdd pmos_6p0 w=1.2u l=0.5u
X76 a_7540_45948# tune_shunt[6] vdd vdd pmos_6p0 w=1.2u l=0.5u
X77 vdd a_5612_44279# a_5524_44376# vdd pmos_6p0 w=1.22u l=1u
X78 a_22436_13396# tune_series_gy[5] vdd vdd pmos_6p0 w=1.2u l=0.5u
X79 a_17596_50984# a_17508_51028# vss vss nmos_6p0 w=0.82u l=1u
X80 a_35740_50551# a_35652_50648# vss vss nmos_6p0 w=0.82u l=1u
X81 a_17828_48376# cap_shunt_p a_18760_48376# vss nmos_6p0 w=0.82u l=0.6u
X82 a_6740_23288# cap_shunt_p a_8456_23288# vss nmos_6p0 w=0.82u l=0.6u
X83 a_21748_45602# cap_shunt_p a_21540_45948# vdd pmos_6p0 w=1.2u l=0.5u
X84 a_2500_44380# cap_shunt_p a_2708_44034# vdd pmos_6p0 w=1.2u l=0.5u
X85 a_16500_36540# cap_shunt_n a_16708_36194# vdd pmos_6p0 w=1.2u l=0.5u
X86 a_10452_6748# cap_series_gyn a_10660_6402# vdd pmos_6p0 w=1.2u l=0.5u
X87 a_6740_20152# cap_shunt_p a_6532_19668# vdd pmos_6p0 w=1.2u l=0.5u
X88 a_7748_26786# cap_shunt_n a_7540_27132# vdd pmos_6p0 w=1.2u l=0.5u
X89 a_28692_9176# tune_series_gy[3] vss vss nmos_6p0 w=0.51u l=0.6u
X90 vdd a_28572_25463# a_28484_25560# vdd pmos_6p0 w=1.22u l=1u
X91 a_3828_15448# tune_shunt[7] vss vss nmos_6p0 w=0.51u l=0.6u
X92 a_17620_19668# tune_shunt[7] vdd vdd pmos_6p0 w=1.2u l=0.5u
X93 vdd a_26444_53687# a_26356_53784# vdd pmos_6p0 w=1.22u l=1u
X94 a_21516_53687# a_21428_53784# vss vss nmos_6p0 w=0.82u l=1u
X95 a_2500_41244# cap_shunt_p a_2708_40898# vdd pmos_6p0 w=1.2u l=0.5u
X96 a_16500_33404# cap_shunt_n a_16708_33058# vdd pmos_6p0 w=1.2u l=0.5u
X97 a_24452_27132# cap_shunt_p a_24660_26786# vdd pmos_6p0 w=1.2u l=0.5u
X98 a_18612_9538# tune_series_gy[5] vss vss nmos_6p0 w=0.51u l=0.6u
X99 a_29700_29922# cap_shunt_p a_31416_29860# vss nmos_6p0 w=0.82u l=0.6u
X100 a_5844_9538# cap_shunt_p a_5636_9884# vdd pmos_6p0 w=1.2u l=0.5u
X101 vdd a_1692_23895# a_1604_23992# vdd pmos_6p0 w=1.22u l=1u
X102 vss cap_shunt_p a_19936_18584# vss nmos_6p0 w=0.82u l=0.6u
X103 a_6292_18584# cap_shunt_p a_8008_18584# vss nmos_6p0 w=0.82u l=0.6u
X104 vdd a_33500_16488# a_33412_16532# vdd pmos_6p0 w=1.22u l=1u
X105 a_29700_26786# tune_shunt[7] vss vss nmos_6p0 w=0.51u l=0.6u
X106 a_31260_38440# a_31172_38484# vss vss nmos_6p0 w=0.82u l=1u
X107 a_10452_30268# cap_shunt_n a_10660_29922# vdd pmos_6p0 w=1.2u l=0.5u
X108 a_28484_25940# tune_shunt[7] vdd vdd pmos_6p0 w=1.2u l=0.5u
X109 vdd a_28572_22327# a_28484_22424# vdd pmos_6p0 w=1.22u l=1u
X110 a_10316_53687# a_10228_53784# vss vss nmos_6p0 w=0.82u l=1u
X111 vdd a_26444_50551# a_26356_50648# vdd pmos_6p0 w=1.22u l=1u
X112 a_21516_50551# a_21428_50648# vss vss nmos_6p0 w=0.82u l=1u
X113 a_29700_26786# cap_shunt_p a_31416_26724# vss nmos_6p0 w=0.82u l=0.6u
X114 vdd tune_shunt[5] a_13588_49084# vdd pmos_6p0 w=1.2u l=0.5u
X115 a_17620_33780# cap_shunt_n a_17828_34264# vdd pmos_6p0 w=1.2u l=0.5u
X116 vss cap_shunt_p a_19936_15448# vss nmos_6p0 w=0.82u l=0.6u
X117 vdd a_1692_20759# a_1604_20856# vdd pmos_6p0 w=1.22u l=1u
X118 a_12788_49944# cap_shunt_n a_12580_49460# vdd pmos_6p0 w=1.2u l=0.5u
X119 vdd a_20620_39575# a_20532_39672# vdd pmos_6p0 w=1.22u l=1u
X120 a_28484_22804# tune_shunt[4] vdd vdd pmos_6p0 w=1.2u l=0.5u
X121 a_20532_41620# cap_shunt_p a_20740_42104# vdd pmos_6p0 w=1.2u l=0.5u
X122 a_7748_36194# cap_shunt_n a_7540_36540# vdd pmos_6p0 w=1.2u l=0.5u
X123 a_17620_30644# cap_shunt_n a_17828_31128# vdd pmos_6p0 w=1.2u l=0.5u
X124 a_25780_7608# cap_series_gyn a_25572_7124# vdd pmos_6p0 w=1.2u l=0.5u
X125 a_14692_10744# cap_series_gyn a_14484_10260# vdd pmos_6p0 w=1.2u l=0.5u
X126 a_38092_29032# a_38004_29076# vss vss nmos_6p0 w=0.82u l=1u
X127 vdd a_11884_54120# a_11796_54164# vdd pmos_6p0 w=1.22u l=1u
X128 vdd a_20620_36439# a_20532_36536# vdd pmos_6p0 w=1.22u l=1u
X129 a_34348_8316# tune_series_gygy[3] vdd vdd pmos_6p0 w=1.2u l=0.5u
X130 a_15700_7970# cap_series_gyn a_15492_8316# vdd pmos_6p0 w=1.2u l=0.5u
X131 vdd a_37084_54120# a_36996_54164# vdd pmos_6p0 w=1.22u l=1u
X132 a_16500_42812# cap_shunt_n a_16708_42466# vdd pmos_6p0 w=1.2u l=0.5u
X133 vdd a_37868_14487# a_37780_14584# vdd pmos_6p0 w=1.22u l=1u
X134 a_21316_3612# tune_series_gy[3] vdd vdd pmos_6p0 w=1.2u l=0.5u
X135 a_7748_33058# cap_shunt_n a_7540_33404# vdd pmos_6p0 w=1.2u l=0.5u
X136 a_20532_36916# tune_shunt[6] vdd vdd pmos_6p0 w=1.2u l=0.5u
X137 a_25572_27508# cap_shunt_p a_25780_27992# vdd pmos_6p0 w=1.2u l=0.5u
X138 vdd a_13452_55688# a_13364_55732# vdd pmos_6p0 w=1.22u l=1u
X139 vdd a_37868_11351# a_37780_11448# vdd pmos_6p0 w=1.22u l=1u
X140 a_36160_44757# tune_shunt_gy[3] vdd vdd pmos_6p0 w=1.215u l=0.5u
X141 vss cap_shunt_n a_22848_35832# vss nmos_6p0 w=0.82u l=0.6u
X142 a_24660_44034# cap_shunt_p a_24452_44380# vdd pmos_6p0 w=1.2u l=0.5u
X143 vdd tune_series_gy[1] a_10340_3612# vdd pmos_6p0 w=1.2u l=0.5u
X144 a_16708_20514# cap_shunt_p a_16500_20860# vdd pmos_6p0 w=1.2u l=0.5u
X145 vdd tune_shunt[6] a_10452_39676# vdd pmos_6p0 w=1.2u l=0.5u
X146 a_6572_7124# cap_series_gyp a_6760_7124# vdd pmos_6p0 w=1.2u l=0.5u
X147 a_20740_18584# cap_shunt_p a_20532_18100# vdd pmos_6p0 w=1.2u l=0.5u
X148 a_13564_11351# a_13476_11448# vss vss nmos_6p0 w=0.82u l=1u
X149 a_7540_39676# tune_shunt[6] vdd vdd pmos_6p0 w=1.2u l=0.5u
X150 vdd a_10428_55688# a_10340_55732# vdd pmos_6p0 w=1.22u l=1u
X151 a_14728_37700# cap_shunt_n vss vss nmos_6p0 w=0.82u l=0.6u
X152 a_4424_12612# cap_shunt_n vss vss nmos_6p0 w=0.82u l=0.6u
X153 a_24660_40898# cap_shunt_n a_24452_41244# vdd pmos_6p0 w=1.2u l=0.5u
X154 a_15512_20452# cap_shunt_n vss vss nmos_6p0 w=0.82u l=0.6u
X155 a_28796_41576# a_28708_41620# vss vss nmos_6p0 w=0.82u l=1u
X156 vss tune_shunt[7] a_6740_20152# vss nmos_6p0 w=0.51u l=0.6u
X157 a_21748_39330# cap_shunt_p a_21540_39676# vdd pmos_6p0 w=1.2u l=0.5u
X158 a_6740_38968# cap_shunt_n a_7672_38968# vss nmos_6p0 w=0.82u l=0.6u
X159 vss cap_series_gyn a_16800_6040# vss nmos_6p0 w=0.82u l=0.6u
X160 a_36524_33303# a_36436_33400# vss vss nmos_6p0 w=0.82u l=1u
X161 a_28684_52119# a_28596_52216# vss vss nmos_6p0 w=0.82u l=1u
X162 vdd a_9644_54120# a_9556_54164# vdd pmos_6p0 w=1.22u l=1u
X163 vss tune_shunt[4] a_32612_31490# vss nmos_6p0 w=0.51u l=0.6u
X164 a_5836_5512# a_5748_5556# vss vss nmos_6p0 w=0.82u l=1u
X165 vdd tune_shunt[3] a_2724_11828# vdd pmos_6p0 w=1.2u l=0.5u
X166 a_24660_4834# cap_series_gyp a_24452_5180# vdd pmos_6p0 w=1.2u l=0.5u
X167 a_7748_45602# cap_shunt_p a_8680_45540# vss nmos_6p0 w=0.82u l=0.6u
X168 a_32612_37762# cap_shunt_p a_32404_38108# vdd pmos_6p0 w=1.2u l=0.5u
X169 a_16500_27132# cap_shunt_n a_16708_26786# vdd pmos_6p0 w=1.2u l=0.5u
X170 a_12108_12919# a_12020_13016# vss vss nmos_6p0 w=0.82u l=1u
X171 vdd a_28572_16055# a_28484_16152# vdd pmos_6p0 w=1.22u l=1u
X172 a_7748_42466# cap_shunt_n a_8680_42404# vss nmos_6p0 w=0.82u l=0.6u
X173 vdd a_1692_14487# a_1604_14584# vdd pmos_6p0 w=1.22u l=1u
X174 vdd tune_shunt[6] a_11460_44756# vdd pmos_6p0 w=1.2u l=0.5u
X175 a_17828_43672# tune_shunt[6] vss vss nmos_6p0 w=0.51u l=0.6u
X176 vss cap_series_gygyp a_36624_22020# vss nmos_6p0 w=0.82u l=0.6u
X177 a_7768_5180# cap_series_gyn a_7580_5180# vdd pmos_6p0 w=1.2u l=0.5u
X178 a_29916_8215# a_29828_8312# vss vss nmos_6p0 w=0.82u l=1u
X179 a_29700_17378# tune_series_gy[4] vss vss nmos_6p0 w=0.51u l=0.6u
X180 a_28484_16532# tune_series_gy[4] vdd vdd pmos_6p0 w=1.2u l=0.5u
X181 vdd a_28572_12919# a_28484_13016# vdd pmos_6p0 w=1.22u l=1u
X182 a_29700_17378# cap_series_gyp a_31416_17316# vss nmos_6p0 w=0.82u l=0.6u
X183 a_3380_49944# cap_shunt_p a_3172_49460# vdd pmos_6p0 w=1.2u l=0.5u
X184 a_17620_24372# cap_shunt_n a_17828_24856# vdd pmos_6p0 w=1.2u l=0.5u
X185 a_25592_22020# cap_shunt_p vss vss nmos_6p0 w=0.82u l=0.6u
X186 vdd a_1692_11351# a_1604_11448# vdd pmos_6p0 w=1.22u l=1u
X187 vss tune_series_gy[5] a_19732_12312# vss nmos_6p0 w=0.51u l=0.6u
X188 a_17828_40536# tune_shunt[6] vss vss nmos_6p0 w=0.51u l=0.6u
X189 a_25780_6040# tune_series_gy[3] vss vss nmos_6p0 w=0.51u l=0.6u
X190 a_19544_38968# cap_shunt_n vss vss nmos_6p0 w=0.82u l=0.6u
X191 a_14484_3988# cap_series_gyp a_14692_4472# vdd pmos_6p0 w=1.2u l=0.5u
X192 a_21748_45602# cap_shunt_p a_21540_45948# vdd pmos_6p0 w=1.2u l=0.5u
X193 a_16500_36540# cap_shunt_n a_16708_36194# vdd pmos_6p0 w=1.2u l=0.5u
X194 vss cap_series_gyp a_23856_9476# vss nmos_6p0 w=0.82u l=0.6u
X195 vss cap_shunt_n a_11984_39268# vss nmos_6p0 w=0.82u l=0.6u
X196 a_13796_37762# tune_shunt[7] vss vss nmos_6p0 w=0.51u l=0.6u
X197 a_7748_26786# cap_shunt_n a_7540_27132# vdd pmos_6p0 w=1.2u l=0.5u
X198 vdd a_10092_40008# a_10004_40052# vdd pmos_6p0 w=1.22u l=1u
X199 a_20532_32212# cap_shunt_n a_20740_32696# vdd pmos_6p0 w=1.2u l=0.5u
X200 a_16136_11044# cap_series_gyp a_15720_11452# vss nmos_6p0 w=0.82u l=0.6u
X201 vdd a_2588_19624# a_2500_19668# vdd pmos_6p0 w=1.22u l=1u
X202 vdd a_31036_41576# a_30948_41620# vdd pmos_6p0 w=1.22u l=1u
X203 vss cap_shunt_n a_30016_38968# vss nmos_6p0 w=0.82u l=0.6u
X204 a_17620_21236# cap_shunt_p a_17828_21720# vdd pmos_6p0 w=1.2u l=0.5u
X205 vdd a_20620_27031# a_20532_27128# vdd pmos_6p0 w=1.22u l=1u
X206 vdd tune_shunt[7] a_7540_23996# vdd pmos_6p0 w=1.2u l=0.5u
X207 vdd a_24652_46280# a_24564_46324# vdd pmos_6p0 w=1.22u l=1u
X208 a_13796_37762# cap_shunt_n a_15512_37700# vss nmos_6p0 w=0.82u l=0.6u
X209 vdd a_18044_13352# a_17956_13396# vdd pmos_6p0 w=1.22u l=1u
X210 vdd a_21628_49416# a_21540_49460# vdd pmos_6p0 w=1.22u l=1u
X211 a_34144_48676# tune_shunt_gy[4] vss vss nmos_6p0 w=0.51u l=0.6u
X212 a_23856_37700# cap_shunt_n a_21748_37762# vss nmos_6p0 w=0.82u l=0.6u
X213 a_16500_33404# cap_shunt_n a_16708_33058# vdd pmos_6p0 w=1.2u l=0.5u
X214 vss cap_shunt_n a_22848_29560# vss nmos_6p0 w=0.82u l=0.6u
X215 a_21540_23996# cap_shunt_p a_21748_23650# vdd pmos_6p0 w=1.2u l=0.5u
X216 a_23072_4772# cap_series_gyp a_21748_4834# vss nmos_6p0 w=0.82u l=0.6u
X217 a_6292_51874# tune_shunt[5] vss vss nmos_6p0 w=0.51u l=0.6u
X218 vss tune_shunt[6] a_3828_43672# vss nmos_6p0 w=0.51u l=0.6u
X219 a_13796_34626# tune_shunt[7] vss vss nmos_6p0 w=0.51u l=0.6u
X220 a_10660_6402# cap_series_gyn a_10452_6748# vdd pmos_6p0 w=1.2u l=0.5u
X221 a_2724_8692# cap_shunt_n a_2932_9176# vdd pmos_6p0 w=1.2u l=0.5u
X222 vss tune_shunt[7] a_12788_17016# vss nmos_6p0 w=0.51u l=0.6u
X223 a_20532_27508# tune_shunt[7] vdd vdd pmos_6p0 w=1.2u l=0.5u
X224 vss tune_shunt[7] a_20740_32696# vss nmos_6p0 w=0.51u l=0.6u
X225 vss tune_shunt[2] a_1924_6040# vss nmos_6p0 w=0.51u l=0.6u
X226 vdd a_23756_18056# a_23668_18100# vdd pmos_6p0 w=1.22u l=1u
X227 vss cap_shunt_n a_22848_26424# vss nmos_6p0 w=0.82u l=0.6u
X228 vdd a_31708_10216# a_31620_10260# vdd pmos_6p0 w=1.22u l=1u
X229 a_3620_47892# cap_shunt_p a_3828_48376# vdd pmos_6p0 w=1.2u l=0.5u
X230 a_15512_14180# cap_shunt_p vss vss nmos_6p0 w=0.82u l=0.6u
X231 a_7404_55688# a_7316_55732# vss vss nmos_6p0 w=0.82u l=1u
X232 vss tune_shunt[6] a_3828_40536# vss nmos_6p0 w=0.51u l=0.6u
X233 vdd a_32156_33736# a_32068_33780# vdd pmos_6p0 w=1.22u l=1u
X234 vss cap_shunt_p a_25984_43972# vss nmos_6p0 w=0.82u l=0.6u
X235 a_29744_15748# cap_series_gyn vss vss nmos_6p0 w=0.82u l=0.6u
X236 vdd tune_shunt[6] a_6532_41620# vdd pmos_6p0 w=1.2u l=0.5u
X237 vdd a_19836_53687# a_19748_53784# vdd pmos_6p0 w=1.22u l=1u
X238 a_14908_53687# a_14820_53784# vss vss nmos_6p0 w=0.82u l=1u
X239 vdd a_33948_38440# a_33860_38484# vdd pmos_6p0 w=1.22u l=1u
X240 vdd tune_shunt[7] a_9668_21236# vdd pmos_6p0 w=1.2u l=0.5u
X241 vdd tune_shunt[6] a_28484_33780# vdd pmos_6p0 w=1.2u l=0.5u
X242 a_2500_17724# tune_shunt[7] vdd vdd pmos_6p0 w=1.2u l=0.5u
X243 a_6084_51028# tune_shunt[5] vdd vdd pmos_6p0 w=1.2u l=0.5u
X244 a_20532_41620# cap_shunt_p a_20740_42104# vdd pmos_6p0 w=1.2u l=0.5u
X245 a_15700_4834# cap_series_gyn a_16632_4772# vss nmos_6p0 w=0.82u l=0.6u
X246 a_3620_44756# cap_shunt_p a_3828_45240# vdd pmos_6p0 w=1.2u l=0.5u
X247 a_14692_10744# cap_series_gyn a_14484_10260# vdd pmos_6p0 w=1.2u l=0.5u
X248 a_24652_38440# a_24564_38484# vss vss nmos_6p0 w=0.82u l=1u
X249 vdd a_32156_30600# a_32068_30644# vdd pmos_6p0 w=1.22u l=1u
X250 vss cap_shunt_n a_14784_27992# vss nmos_6p0 w=0.82u l=0.6u
X251 vss cap_shunt_n a_25984_40836# vss nmos_6p0 w=0.82u l=0.6u
X252 a_32612_29922# cap_shunt_p a_32404_30268# vdd pmos_6p0 w=1.2u l=0.5u
X253 a_2500_49084# tune_shunt[5] vdd vdd pmos_6p0 w=1.2u l=0.5u
X254 vdd tune_shunt[5] a_25572_40052# vdd pmos_6p0 w=1.2u l=0.5u
X255 a_10660_44034# cap_shunt_n a_10452_44380# vdd pmos_6p0 w=1.2u l=0.5u
X256 a_8456_37400# cap_shunt_n vss vss nmos_6p0 w=0.82u l=0.6u
X257 a_3828_43672# cap_shunt_p a_4760_43672# vss nmos_6p0 w=0.82u l=0.6u
X258 vdd tune_shunt[5] a_28484_30644# vdd pmos_6p0 w=1.2u l=0.5u
X259 vdd a_2140_17623# a_2052_17720# vdd pmos_6p0 w=1.22u l=1u
X260 vdd tune_shunt[4] a_13588_50652# vdd pmos_6p0 w=1.2u l=0.5u
X261 vdd a_36076_38007# a_35988_38104# vdd pmos_6p0 w=1.22u l=1u
X262 a_12788_17016# cap_shunt_p a_13720_17016# vss nmos_6p0 w=0.82u l=0.6u
X263 a_7748_36194# cap_shunt_n a_8680_36132# vss nmos_6p0 w=0.82u l=0.6u
X264 a_32612_36194# cap_shunt_n a_32404_36540# vdd pmos_6p0 w=1.2u l=0.5u
X265 vss cap_shunt_n a_14784_24856# vss nmos_6p0 w=0.82u l=0.6u
X266 a_7540_44380# cap_shunt_p a_7748_44034# vdd pmos_6p0 w=1.2u l=0.5u
X267 a_11668_40536# cap_shunt_n a_11460_40052# vdd pmos_6p0 w=1.2u l=0.5u
X268 vdd tune_shunt[6] a_24452_34972# vdd pmos_6p0 w=1.2u l=0.5u
X269 vdd a_34844_3944# a_34756_3988# vdd pmos_6p0 w=1.22u l=1u
X270 a_10660_40898# cap_shunt_n a_10452_41244# vdd pmos_6p0 w=1.2u l=0.5u
X271 vdd a_14908_5079# a_14820_5176# vdd pmos_6p0 w=1.22u l=1u
X272 a_5636_3612# tune_shunt[1] vdd vdd pmos_6p0 w=1.2u l=0.5u
X273 a_24660_44034# cap_shunt_p a_24452_44380# vdd pmos_6p0 w=1.2u l=0.5u
X274 a_3828_40536# cap_shunt_n a_4760_40536# vss nmos_6p0 w=0.82u l=0.6u
X275 vdd tune_shunt[7] a_9332_9884# vdd pmos_6p0 w=1.2u l=0.5u
X276 a_3620_14964# tune_shunt[7] vdd vdd pmos_6p0 w=1.2u l=0.5u
X277 a_23632_4472# cap_series_gyn a_21524_4472# vss nmos_6p0 w=0.82u l=0.6u
X278 a_20740_18584# cap_shunt_p a_20532_18100# vdd pmos_6p0 w=1.2u l=0.5u
X279 a_32612_33058# cap_shunt_n a_32404_33404# vdd pmos_6p0 w=1.2u l=0.5u
X280 a_7540_41244# cap_shunt_n a_7748_40898# vdd pmos_6p0 w=1.2u l=0.5u
X281 vdd tune_shunt[7] a_24452_31836# vdd pmos_6p0 w=1.2u l=0.5u
X282 a_10548_38968# tune_shunt[6] vss vss nmos_6p0 w=0.51u l=0.6u
X283 a_30812_6647# a_30724_6744# vss vss nmos_6p0 w=0.82u l=1u
X284 vss cap_shunt_n a_5936_13880# vss nmos_6p0 w=0.82u l=0.6u
X285 vdd tune_series_gy[5] a_20532_14964# vdd pmos_6p0 w=1.2u l=0.5u
X286 a_30812_20759# a_30724_20856# vss vss nmos_6p0 w=0.82u l=1u
X287 vdd a_32716_23895# a_32628_23992# vdd pmos_6p0 w=1.22u l=1u
X288 a_24660_40898# cap_shunt_n a_24452_41244# vdd pmos_6p0 w=1.2u l=0.5u
X289 a_17828_34264# tune_shunt[7] vss vss nmos_6p0 w=0.51u l=0.6u
X290 a_31260_44279# a_31172_44376# vss vss nmos_6p0 w=0.82u l=1u
X291 a_17828_21720# cap_shunt_p a_19544_21720# vss nmos_6p0 w=0.82u l=0.6u
X292 vdd a_29916_55255# a_29828_55352# vdd pmos_6p0 w=1.22u l=1u
X293 a_21748_39330# cap_shunt_p a_21540_39676# vdd pmos_6p0 w=1.2u l=0.5u
X294 vdd tune_shunt[2] a_1716_7124# vdd pmos_6p0 w=1.2u l=0.5u
X295 a_6760_7124# cap_series_gyp a_6572_7124# vdd pmos_6p0 w=1.2u l=0.5u
X296 vss tune_series_gy[2] a_11780_4472# vss nmos_6p0 w=0.51u l=0.6u
X297 vdd tune_series_gy[0] a_28484_3988# vdd pmos_6p0 w=1.2u l=0.5u
X298 a_27888_21720# cap_shunt_p a_25780_21720# vss nmos_6p0 w=0.82u l=0.6u
X299 a_33732_34264# cap_shunt_n a_33524_33780# vdd pmos_6p0 w=1.2u l=0.5u
X300 a_13796_18946# cap_shunt_p a_14728_18884# vss nmos_6p0 w=0.82u l=0.6u
X301 a_21672_20152# cap_shunt_p vss vss nmos_6p0 w=0.82u l=0.6u
X302 a_11872_3204# cap_series_gyn a_10548_3266# vss nmos_6p0 w=0.82u l=0.6u
X303 vss tune_series_gy[5] a_21748_12674# vss nmos_6p0 w=0.51u l=0.6u
X304 a_9428_18946# tune_shunt[7] vss vss nmos_6p0 w=0.51u l=0.6u
X305 a_17828_31128# tune_shunt[7] vss vss nmos_6p0 w=0.51u l=0.6u
X306 a_35880_5556# cap_series_gygyn a_36688_6040# vss nmos_6p0 w=0.82u l=0.6u
X307 a_31260_41143# a_31172_41240# vss vss nmos_6p0 w=0.82u l=1u
X308 a_24452_9884# tune_series_gy[4] vdd vdd pmos_6p0 w=1.2u l=0.5u
X309 vdd a_29916_52119# a_29828_52216# vdd pmos_6p0 w=1.22u l=1u
X310 a_34844_50984# a_34756_51028# vss vss nmos_6p0 w=0.82u l=1u
X311 a_16500_27132# cap_shunt_n a_16708_26786# vdd pmos_6p0 w=1.2u l=0.5u
X312 vss cap_series_gygyn a_34952_9476# vss nmos_6p0 w=0.82u l=0.6u
X313 a_29700_31490# tune_shunt[5] vss vss nmos_6p0 w=0.51u l=0.6u
X314 a_33732_31128# cap_shunt_n a_33524_30644# vdd pmos_6p0 w=1.2u l=0.5u
X315 a_13796_28354# tune_shunt[7] vss vss nmos_6p0 w=0.51u l=0.6u
X316 a_6784_6040# cap_series_gyp vss vss nmos_6p0 w=0.82u l=0.6u
X317 a_13796_15810# cap_shunt_p a_14728_15748# vss nmos_6p0 w=0.82u l=0.6u
X318 a_21316_3988# cap_series_gyn a_21524_4472# vdd pmos_6p0 w=1.2u l=0.5u
X319 vss cap_shunt_p a_33936_29860# vss nmos_6p0 w=0.82u l=0.6u
X320 a_24452_6748# tune_series_gy[3] vdd vdd pmos_6p0 w=1.2u l=0.5u
X321 a_33732_27992# tune_shunt[7] vss vss nmos_6p0 w=0.51u l=0.6u
X322 a_21748_20514# cap_shunt_p a_23464_20452# vss nmos_6p0 w=0.82u l=0.6u
X323 a_13796_25218# tune_shunt[7] vss vss nmos_6p0 w=0.51u l=0.6u
X324 a_24540_3511# a_24452_3608# vss vss nmos_6p0 w=0.82u l=1u
X325 a_13788_10216# a_13700_10260# vss vss nmos_6p0 w=0.82u l=1u
X326 a_21540_14588# cap_series_gyn a_21748_14242# vdd pmos_6p0 w=1.2u l=0.5u
X327 vdd a_29468_47415# a_29380_47512# vdd pmos_6p0 w=1.22u l=1u
X328 vss tune_shunt[6] a_3828_34264# vss nmos_6p0 w=0.51u l=0.6u
X329 vdd tune_shunt[5] a_6084_18100# vdd pmos_6p0 w=1.2u l=0.5u
X330 a_31424_20152# cap_series_gygyn vss vss nmos_6p0 w=0.82u l=0.6u
X331 vss cap_shunt_p a_33936_26724# vss nmos_6p0 w=0.82u l=0.6u
X332 a_12444_50984# a_12356_51028# vss vss nmos_6p0 w=0.82u l=1u
X333 vss tune_shunt[7] a_20740_23288# vss nmos_6p0 w=0.51u l=0.6u
X334 a_24360_13880# cap_series_gyn vss vss nmos_6p0 w=0.82u l=0.6u
X335 vss cap_shunt_n a_14112_49944# vss nmos_6p0 w=0.82u l=0.6u
X336 vss cap_shunt_p a_22848_17016# vss nmos_6p0 w=0.82u l=0.6u
X337 a_3620_38484# cap_shunt_n a_3828_38968# vdd pmos_6p0 w=1.2u l=0.5u
X338 vss cap_shunt_p a_25984_34564# vss nmos_6p0 w=0.82u l=0.6u
X339 vss tune_shunt[7] a_3828_31128# vss nmos_6p0 w=0.51u l=0.6u
X340 vdd a_32156_24328# a_32068_24372# vdd pmos_6p0 w=1.22u l=1u
X341 vdd a_30028_52552# a_29940_52596# vdd pmos_6p0 w=1.22u l=1u
X342 vdd tune_shunt[7] a_6532_32212# vdd pmos_6p0 w=1.2u l=0.5u
X343 a_34328_34564# cap_shunt_n vss vss nmos_6p0 w=0.82u l=0.6u
X344 a_34308_13020# cap_series_gygyp a_34516_12674# vdd pmos_6p0 w=1.2u l=0.5u
X345 a_4380_54120# a_4292_54164# vss vss nmos_6p0 w=0.82u l=1u
X346 vdd tune_shunt[7] a_28484_24372# vdd pmos_6p0 w=1.2u l=0.5u
X347 a_24360_10744# cap_series_gyp vss vss nmos_6p0 w=0.82u l=0.6u
X348 vdd tune_shunt[6] a_13588_44380# vdd pmos_6p0 w=1.2u l=0.5u
X349 a_20532_32212# cap_shunt_n a_20740_32696# vdd pmos_6p0 w=1.2u l=0.5u
X350 a_22456_46808# cap_shunt_p vss vss nmos_6p0 w=0.82u l=0.6u
X351 a_3620_35348# cap_shunt_n a_3828_35832# vdd pmos_6p0 w=1.2u l=0.5u
X352 vss cap_shunt_p a_25984_31428# vss nmos_6p0 w=0.82u l=0.6u
X353 a_22436_8692# tune_series_gy[5] vdd vdd pmos_6p0 w=1.2u l=0.5u
X354 vss cap_shunt_p a_8064_20152# vss nmos_6p0 w=0.82u l=0.6u
X355 a_34328_31428# cap_shunt_n vss vss nmos_6p0 w=0.82u l=0.6u
X356 a_29492_36540# tune_shunt[5] vdd vdd pmos_6p0 w=1.2u l=0.5u
X357 vss cap_shunt_n a_18816_22020# vss nmos_6p0 w=0.82u l=0.6u
X358 vdd tune_shunt[6] a_13588_41244# vdd pmos_6p0 w=1.2u l=0.5u
X359 a_20740_37400# cap_shunt_n a_21672_37400# vss nmos_6p0 w=0.82u l=0.6u
X360 a_3828_34264# cap_shunt_n a_4760_34264# vss nmos_6p0 w=0.82u l=0.6u
X361 a_6740_27992# tune_shunt[7] vss vss nmos_6p0 w=0.51u l=0.6u
X362 a_25572_25940# cap_shunt_p a_25780_26424# vdd pmos_6p0 w=1.2u l=0.5u
X363 a_32612_26786# cap_shunt_p a_32404_27132# vdd pmos_6p0 w=1.2u l=0.5u
X364 a_24452_8316# cap_series_gyp a_24660_7970# vdd pmos_6p0 w=1.2u l=0.5u
X365 vdd tune_shunt[7] a_24452_25564# vdd pmos_6p0 w=1.2u l=0.5u
X366 a_3828_13880# cap_shunt_n a_3620_13396# vdd pmos_6p0 w=1.2u l=0.5u
X367 a_29492_33404# tune_shunt[5] vdd vdd pmos_6p0 w=1.2u l=0.5u
X368 vss tune_series_gy[5] a_21748_15810# vss nmos_6p0 w=0.51u l=0.6u
X369 a_3828_31128# cap_shunt_n a_4760_31128# vss nmos_6p0 w=0.82u l=0.6u
X370 a_6740_24856# tune_shunt[7] vss vss nmos_6p0 w=0.51u l=0.6u
X371 a_25572_22804# cap_shunt_p a_25780_23288# vdd pmos_6p0 w=1.2u l=0.5u
X372 a_31436_22428# tune_series_gygy[5] vdd vdd pmos_6p0 w=1.2u l=0.5u
X373 vdd a_29916_48983# a_29828_49080# vdd pmos_6p0 w=1.22u l=1u
X374 a_27228_38007# a_27140_38104# vss vss nmos_6p0 w=0.82u l=1u
X375 vss tune_shunt[6] a_25780_32696# vss nmos_6p0 w=0.51u l=0.6u
X376 a_35448_23588# cap_series_gygyp vss vss nmos_6p0 w=0.82u l=0.6u
X377 vdd tune_shunt[7] a_24452_22428# vdd pmos_6p0 w=1.2u l=0.5u
X378 a_11780_4472# cap_series_gyp a_11572_3988# vdd pmos_6p0 w=1.2u l=0.5u
X379 a_6084_51028# tune_shunt[5] vdd vdd pmos_6p0 w=1.2u l=0.5u
X380 a_20532_41620# cap_shunt_p a_20740_42104# vdd pmos_6p0 w=1.2u l=0.5u
X381 vdd tune_shunt[6] a_28484_33780# vdd pmos_6p0 w=1.2u l=0.5u
X382 a_12788_12312# tune_shunt[7] vss vss nmos_6p0 w=0.51u l=0.6u
X383 vdd a_28124_41143# a_28036_41240# vdd pmos_6p0 w=1.22u l=1u
X384 vdd a_36748_33736# a_36660_33780# vdd pmos_6p0 w=1.22u l=1u
X385 a_9464_29860# cap_shunt_n vss vss nmos_6p0 w=0.82u l=0.6u
X386 a_15804_13352# a_15716_13396# vss vss nmos_6p0 w=0.82u l=1u
X387 vss tune_series_gygy[5] a_35880_24372# vss nmos_6p0 w=0.51u l=0.6u
X388 a_17828_48376# tune_shunt[4] vss vss nmos_6p0 w=0.51u l=0.6u
X389 a_4760_45240# cap_shunt_p vss vss nmos_6p0 w=0.82u l=0.6u
X390 a_27888_12312# cap_series_gyp a_25780_12312# vss nmos_6p0 w=0.82u l=0.6u
X391 vdd a_31820_47848# a_31732_47892# vdd pmos_6p0 w=1.22u l=1u
X392 a_10660_44034# cap_shunt_n a_10452_44380# vdd pmos_6p0 w=1.2u l=0.5u
X393 vdd tune_shunt[6] a_3620_36916# vdd pmos_6p0 w=1.2u l=0.5u
X394 vdd a_26892_53687# a_26804_53784# vdd pmos_6p0 w=1.22u l=1u
X395 vdd tune_shunt[5] a_28484_30644# vdd pmos_6p0 w=1.2u l=0.5u
X396 vss cap_series_gyn a_19936_11044# vss nmos_6p0 w=0.82u l=0.6u
X397 a_21964_53687# a_21876_53784# vss vss nmos_6p0 w=0.82u l=1u
X398 vdd a_36748_30600# a_36660_30644# vdd pmos_6p0 w=1.22u l=1u
X399 a_17620_36916# cap_shunt_n a_17828_37400# vdd pmos_6p0 w=1.2u l=0.5u
X400 a_9464_26724# cap_shunt_n vss vss nmos_6p0 w=0.82u l=0.6u
X401 vdd tune_shunt[5] a_6084_52220# vdd pmos_6p0 w=1.2u l=0.5u
X402 a_7540_44380# cap_shunt_p a_7748_44034# vdd pmos_6p0 w=1.2u l=0.5u
X403 a_21748_14242# cap_series_gyn a_23464_14180# vss nmos_6p0 w=0.82u l=0.6u
X404 a_4760_42104# cap_shunt_p vss vss nmos_6p0 w=0.82u l=0.6u
X405 a_34844_41576# a_34756_41620# vss vss nmos_6p0 w=0.82u l=1u
X406 a_11668_40536# cap_shunt_n a_11460_40052# vdd pmos_6p0 w=1.2u l=0.5u
X407 a_10660_40898# cap_shunt_n a_10452_41244# vdd pmos_6p0 w=1.2u l=0.5u
X408 a_35736_6340# cap_series_gygyp a_34536_6748# vss nmos_6p0 w=0.82u l=0.6u
X409 vdd a_26892_50551# a_26804_50648# vdd pmos_6p0 w=1.22u l=1u
X410 a_33732_27992# cap_shunt_p a_33524_27508# vdd pmos_6p0 w=1.2u l=0.5u
X411 a_9220_20860# cap_shunt_p a_9428_20514# vdd pmos_6p0 w=1.2u l=0.5u
X412 a_10764_53687# a_10676_53784# vss vss nmos_6p0 w=0.82u l=1u
X413 a_21964_50551# a_21876_50648# vss vss nmos_6p0 w=0.82u l=1u
X414 a_18044_55255# a_17956_55352# vss vss nmos_6p0 w=0.82u l=1u
X415 a_10360_20452# cap_shunt_p vss vss nmos_6p0 w=0.82u l=0.6u
X416 a_7540_41244# cap_shunt_n a_7748_40898# vdd pmos_6p0 w=1.2u l=0.5u
X417 a_21748_11106# cap_series_gyn a_23464_11044# vss nmos_6p0 w=0.82u l=0.6u
X418 a_2140_19624# a_2052_19668# vss vss nmos_6p0 w=0.82u l=1u
X419 vdd tune_shunt[5] a_20532_44756# vdd pmos_6p0 w=1.2u l=0.5u
X420 a_9540_11106# cap_shunt_p a_9332_11452# vdd pmos_6p0 w=1.2u l=0.5u
X421 a_34396_36872# a_34308_36916# vss vss nmos_6p0 w=0.82u l=1u
X422 vss cap_shunt_n a_25984_28292# vss nmos_6p0 w=0.82u l=0.6u
X423 a_34328_28292# cap_shunt_p vss vss nmos_6p0 w=0.82u l=0.6u
X424 vss tune_shunt[5] a_3828_48376# vss nmos_6p0 w=0.51u l=0.6u
X425 a_17828_42104# cap_shunt_n a_17620_41620# vdd pmos_6p0 w=1.2u l=0.5u
X426 a_31708_52119# a_31620_52216# vss vss nmos_6p0 w=0.82u l=1u
X427 a_27228_6647# a_27140_6744# vss vss nmos_6p0 w=0.82u l=1u
X428 a_36688_13880# cap_series_gygyn vss vss nmos_6p0 w=0.82u l=0.6u
X429 a_13588_17724# cap_shunt_p a_13796_17378# vdd pmos_6p0 w=1.2u l=0.5u