* NGSPICE file created from filterstage_flat.ext - technology: gf180mcuC

.subckt filterstage_flat nbusin_nshunt nbusout nseries_gy nseries_gygy nshunt_gy pbusin_pshunt
+ pbusout pseries_gy pseries_gygy pshunt_gy vss vdd
X0 a_3932_14487# a_3844_14584# vss vss nmos_6p0 w=0.82u l=1u
X1 pbusout nbusout vss vss nmos_6p0 w=0.82u l=0.6u
X2 pbusin_pshunt nbusin_nshunt vdd vdd pmos_6p0 w=1.22u l=0.5u
X3 pbusin_pshunt nbusin_nshunt vss vss nmos_6p0 w=0.82u l=0.6u
X4 a_3932_11351# a_3844_11448# vss vss nmos_6p0 w=0.82u l=1u
X5 vss nbusin_nshunt pbusin_pshunt vss nmos_6p0 w=0.82u l=0.6u
X6 pseries_gy nseries_gy vdd vdd pmos_6p0 w=1.22u l=0.5u
X7 pseries_gygy nseries_gy vss vss nmos_6p0 w=0.82u l=0.6u
X8 pbusin_pshunt pbusin_pshunt vss vss nmos_6p0 w=0.82u l=0.6u
X9 nshunt_gy nshunt_gy vss vss nmos_6p0 w=0.82u l=0.6u
X10 vdd a_8412_13352# a_8324_13396# vdd pmos_6p0 w=1.22u l=1u
X11 a_13564_14487# a_13476_14584# vss vss nmos_6p0 w=0.82u l=1u
X12 pseries_gy pbusout vss vss nmos_6p0 w=0.82u l=0.6u
X13 pseries_gy pseries_gy vdd vdd pmos_6p0 w=1.22u l=0.5u
X14 pseries_gy nseries_gy vdd vdd pmos_6p0 w=1.22u l=0.5u
X15 nbusin_nshunt nshunt_gy vss vss nmos_6p0 w=0.82u l=0.6u
X16 vdd a_17372_16055# a_17284_16152# vdd pmos_6p0 w=1.22u l=1u
X17 a_10988_14920# a_10900_14964# vss vss nmos_6p0 w=0.82u l=1u
X18 vdd a_1692_14487# a_1604_14584# vdd pmos_6p0 w=1.22u l=1u
X19 vdd a_1692_11351# a_1604_11448# vdd pmos_6p0 w=1.22u l=1u
X20 pseries_gy pseries_gygy vdd vdd pmos_6p0 w=1.22u l=0.5u
X21 vdd a_14348_16055# a_14260_16152# vdd pmos_6p0 w=1.22u l=1u
X22 vdd a_16812_14920# a_16724_14964# vdd pmos_6p0 w=1.22u l=1u
X23 nbusin_nshunt nseries_gy vss vss nmos_6p0 w=0.82u l=0.6u
X24 vss pbusin_pshunt nshunt_gy vss nmos_6p0 w=0.82u l=0.6u
X25 a_21292_3511# a_21204_3608# vss vss nmos_6p0 w=0.82u l=1u
X26 pseries_gy nbusin_nshunt vss vss nmos_6p0 w=0.82u l=0.6u
X27 pshunt_gy nshunt_gy vss vss nmos_6p0 w=0.82u l=0.6u
X28 pbusin_pshunt pshunt_gy vdd vdd pmos_6p0 w=1.22u l=0.5u
X29 pbusin_pshunt pshunt_gy vss vss nmos_6p0 w=0.82u l=0.6u
X30 a_10876_16055# a_10788_16152# vss vss nmos_6p0 w=0.82u l=1u
X31 vss pshunt_gy pshunt_gy vss nmos_6p0 w=0.82u l=0.6u
X32 pseries_gygy pseries_gygy vss vss nmos_6p0 w=0.82u l=0.6u
X33 vss nseries_gy nbusin_nshunt vss nmos_6p0 w=0.82u l=0.6u
X34 nbusin_nshunt pbusin_pshunt vss vss nmos_6p0 w=0.82u l=0.6u
X35 vdd a_20844_11784# a_20756_11828# vdd pmos_6p0 w=1.22u l=1u
X36 pseries_gy nseries_gy vss vss nmos_6p0 w=0.82u l=0.6u
X37 pbusin_pshunt pbusin_pshunt vdd vdd pmos_6p0 w=1.22u l=0.5u
X38 pseries_gy pbusout vss vss nmos_6p0 w=0.82u l=0.6u
X39 vdd a_21516_14487# a_21428_14584# vdd pmos_6p0 w=1.22u l=1u
X40 vdd a_8860_13352# a_8772_13396# vdd pmos_6p0 w=1.22u l=1u
X41 vdd a_21516_11351# a_21428_11448# vdd pmos_6p0 w=1.22u l=1u
X42 vdd pshunt_gy nshunt_gy vdd pmos_6p0 w=1.22u l=0.5u
X43 nbusin_nshunt nseries_gy vdd vdd pmos_6p0 w=1.22u l=0.5u
X44 pseries_gy nseries_gy vdd vdd pmos_6p0 w=1.22u l=0.5u
X45 vdd a_12220_16055# a_12132_16152# vdd pmos_6p0 w=1.22u l=1u
X46 a_18268_16055# a_18180_16152# vss vss nmos_6p0 w=0.82u l=1u
X47 a_6620_14920# a_6532_14964# vss vss nmos_6p0 w=0.82u l=1u
X48 a_10988_14487# a_10900_14584# vss vss nmos_6p0 w=0.82u l=1u
X49 a_10988_11351# a_10900_11448# vss vss nmos_6p0 w=0.82u l=1u
X50 pseries_gy nbusin_nshunt vss vss nmos_6p0 w=0.82u l=0.6u
X51 vdd a_11660_8215# a_11572_8312# vdd pmos_6p0 w=1.22u l=1u
X52 a_8748_14487# a_8660_14584# vss vss nmos_6p0 w=0.82u l=1u
X53 vdd a_14796_16055# a_14708_16152# vdd pmos_6p0 w=1.22u l=1u
X54 vdd a_17932_14487# a_17844_14584# vdd pmos_6p0 w=1.22u l=1u
X55 nbusout pseries_gy vdd vdd pmos_6p0 w=1.22u l=0.5u
X56 nseries_gy pseries_gy vdd vdd pmos_6p0 w=1.22u l=0.5u
X57 pbusin_pshunt nbusin_nshunt vss vss nmos_6p0 w=0.82u l=0.6u
X58 vdd a_14908_14487# a_14820_14584# vdd pmos_6p0 w=1.22u l=1u
X59 vdd a_15468_13352# a_15380_13396# vdd pmos_6p0 w=1.22u l=1u
X60 nseries_gy pseries_gy vdd vdd pmos_6p0 w=1.22u l=0.5u
X61 nseries_gygy nseries_gygy vdd vdd pmos_6p0 w=1.22u l=0.5u
X62 vdd a_1692_13352# a_1604_13396# vdd pmos_6p0 w=1.22u l=1u
X63 nseries_gy pbusin_pshunt vdd vdd pmos_6p0 w=1.22u l=0.5u
X64 a_13228_14920# a_13140_14964# vss vss nmos_6p0 w=0.82u l=1u
X65 a_10540_11784# a_10452_11828# vss vss nmos_6p0 w=0.82u l=1u
X66 a_21740_11784# a_21652_11828# vss vss nmos_6p0 w=0.82u l=1u
X67 a_16812_3944# a_16724_3988# vss vss nmos_6p0 w=0.82u l=1u
X68 vdd a_11548_3944# a_11460_3988# vdd pmos_6p0 w=1.22u l=1u
X69 vdd a_10876_5079# a_10788_5176# vdd pmos_6p0 w=1.22u l=1u
X70 nbusin_nshunt pbusin_pshunt vdd vdd pmos_6p0 w=1.22u l=0.5u
X71 pseries_gygy nseries_gy vss vss nmos_6p0 w=0.82u l=0.6u
X72 a_16140_16055# a_16052_16152# vss vss nmos_6p0 w=0.82u l=1u
X73 vdd a_21964_14487# a_21876_14584# vdd pmos_6p0 w=1.22u l=1u
X74 nbusout nbusout vdd vdd pmos_6p0 w=1.22u l=0.5u
X75 vdd a_21964_11351# a_21876_11448# vdd pmos_6p0 w=1.22u l=1u
X76 nseries_gygy pseries_gy vdd vdd pmos_6p0 w=1.22u l=0.5u
X77 vdd a_4828_14920# a_4740_14964# vdd pmos_6p0 w=1.22u l=1u
X78 pseries_gy nseries_gy vss vss nmos_6p0 w=0.82u l=0.6u
X79 pbusout nbusout vss vss nmos_6p0 w=0.82u l=0.6u
X80 pseries_gy pseries_gy vss vss nmos_6p0 w=0.82u l=0.6u
X81 a_9644_8648# a_9556_8692# vss vss nmos_6p0 w=0.82u l=1u
X82 a_20284_14920# a_20196_14964# vss vss nmos_6p0 w=0.82u l=1u
X83 vdd a_20844_12919# a_20756_13016# vdd pmos_6p0 w=1.22u l=1u
X84 vdd a_4828_11784# a_4740_11828# vdd pmos_6p0 w=1.22u l=1u
X85 pbusout nseries_gy vss vss nmos_6p0 w=0.82u l=0.6u
X86 vdd a_21516_13352# a_21428_13396# vdd pmos_6p0 w=1.22u l=1u
X87 nseries_gy nseries_gy vdd vdd pmos_6p0 w=1.22u l=0.5u
X88 vdd a_7404_16055# a_7316_16152# vdd pmos_6p0 w=1.22u l=1u
X89 vdd a_7404_12919# a_7316_13016# vdd pmos_6p0 w=1.22u l=1u
X90 pseries_gy nbusin_nshunt vss vss nmos_6p0 w=0.82u l=0.6u
X91 a_16252_14487# a_16164_14584# vss vss nmos_6p0 w=0.82u l=1u
X92 pseries_gygy nseries_gygy vdd vdd pmos_6p0 w=1.22u l=0.5u
X93 nseries_gygy pseries_gy vdd vdd pmos_6p0 w=1.22u l=0.5u
X94 a_3932_16055# a_3844_16152# vss vss nmos_6p0 w=0.82u l=1u
X95 a_13676_14920# a_13588_14964# vss vss nmos_6p0 w=0.82u l=1u
X96 vdd a_4380_14487# a_4292_14584# vdd pmos_6p0 w=1.22u l=1u
X97 nbusout pseries_gy vdd vdd pmos_6p0 w=1.22u l=0.5u
X98 nseries_gy pseries_gy vdd vdd pmos_6p0 w=1.22u l=0.5u
X99 vdd a_4380_11351# a_4292_11448# vdd pmos_6p0 w=1.22u l=1u
X100 pseries_gy nseries_gy vss vss nmos_6p0 w=0.82u l=0.6u
X101 a_5724_11784# a_5636_11828# vss vss nmos_6p0 w=0.82u l=1u
X102 nseries_gy pbusin_pshunt vdd vdd pmos_6p0 w=1.22u l=0.5u
X103 nseries_gy nbusout vdd vdd pmos_6p0 w=1.22u l=0.5u
X104 nbusin_nshunt nbusin_nshunt vdd vdd pmos_6p0 w=1.22u l=0.5u
X105 pbusin_pshunt pshunt_gy vdd vdd pmos_6p0 w=1.22u l=0.5u
X106 nseries_gygy pseries_gy vdd vdd pmos_6p0 w=1.22u l=0.5u
X107 vdd nseries_gy pbusout vdd pmos_6p0 w=1.22u l=0.5u
X108 vdd a_21964_13352# a_21876_13396# vdd pmos_6p0 w=1.22u l=1u
X109 a_5612_12919# a_5524_13016# vss vss nmos_6p0 w=0.82u l=1u
X110 nseries_gy nbusout vss vss nmos_6p0 w=0.82u l=0.6u
X111 nseries_gy nseries_gy vdd vdd pmos_6p0 w=1.22u l=0.5u
X112 vdd a_4828_16055# a_4740_16152# vdd pmos_6p0 w=1.22u l=1u
X113 vdd a_7852_16055# a_7764_16152# vdd pmos_6p0 w=1.22u l=1u
X114 vdd a_12332_14920# a_12244_14964# vdd pmos_6p0 w=1.22u l=1u
X115 vdd a_7852_12919# a_7764_13016# vdd pmos_6p0 w=1.22u l=1u
X116 vdd a_12332_11784# a_12244_11828# vdd pmos_6p0 w=1.22u l=1u
X117 vdd a_4828_12919# a_4740_13016# vdd pmos_6p0 w=1.22u l=1u
X118 nseries_gy pseries_gy vdd vdd pmos_6p0 w=1.22u l=0.5u
X119 pseries_gy pseries_gy vss vss nmos_6p0 w=0.82u l=0.6u
X120 nbusin_nshunt nseries_gy vss vss nmos_6p0 w=0.82u l=0.6u
X121 a_7068_13352# a_6980_13396# vss vss nmos_6p0 w=0.82u l=1u
X122 vdd a_4380_13352# a_4292_13396# vdd pmos_6p0 w=1.22u l=1u
X123 nseries_gy pseries_gy vss vss nmos_6p0 w=0.82u l=0.6u
X124 a_8748_16055# a_8660_16152# vss vss nmos_6p0 w=0.82u l=1u
X125 a_2140_14920# a_2052_14964# vss vss nmos_6p0 w=0.82u l=1u
X126 vss nseries_gygy pseries_gygy vss nmos_6p0 w=0.82u l=0.6u
X127 vdd a_9196_14487# a_9108_14584# vdd pmos_6p0 w=1.22u l=1u
X128 vdd a_12780_14920# a_12692_14964# vdd pmos_6p0 w=1.22u l=1u
X129 vdd a_12780_11784# a_12692_11828# vdd pmos_6p0 w=1.22u l=1u
X130 vss nseries_gy nbusin_nshunt vss nmos_6p0 w=0.82u l=0.6u
X131 pbusout nseries_gy vdd vdd pmos_6p0 w=1.22u l=0.5u
X132 vdd a_20508_16055# a_20420_16152# vdd pmos_6p0 w=1.22u l=1u
X133 vdd a_7516_14920# a_7428_14964# vdd pmos_6p0 w=1.22u l=1u
X134 vdd a_7516_11784# a_7428_11828# vdd pmos_6p0 w=1.22u l=1u
X135 nseries_gy nseries_gygy vdd vdd pmos_6p0 w=1.22u l=0.5u
X136 vdd a_12332_12919# a_12244_13016# vdd pmos_6p0 w=1.22u l=1u
X137 vdd a_3036_10216# a_2948_10260# vdd pmos_6p0 w=1.22u l=1u
X138 nseries_gy pseries_gy vdd vdd pmos_6p0 w=1.22u l=0.5u
X139 nseries_gy pbusin_pshunt vdd vdd pmos_6p0 w=1.22u l=0.5u
X140 pseries_gy nbusin_nshunt vdd vdd pmos_6p0 w=1.22u l=0.5u
X141 nseries_gy nseries_gy vss vss nmos_6p0 w=0.82u l=0.6u
X142 pseries_gy nseries_gy vdd vdd pmos_6p0 w=1.22u l=0.5u
X143 pbusin_pshunt nbusin_nshunt vdd vdd pmos_6p0 w=1.22u l=0.5u
X144 a_16364_14920# a_16276_14964# vss vss nmos_6p0 w=0.82u l=1u
X145 a_2140_14487# a_2052_14584# vss vss nmos_6p0 w=0.82u l=1u
X146 a_2140_11351# a_2052_11448# vss vss nmos_6p0 w=0.82u l=1u
X147 nbusin_nshunt nseries_gy vss vss nmos_6p0 w=0.82u l=0.6u
X148 nseries_gy pseries_gy vss vss nmos_6p0 w=0.82u l=0.6u
X149 a_13564_5079# a_13476_5176# vss vss nmos_6p0 w=0.82u l=1u
X150 a_8412_11784# a_8324_11828# vss vss nmos_6p0 w=0.82u l=1u
X151 a_10540_12919# a_10452_13016# vss vss nmos_6p0 w=0.82u l=1u
X152 vdd a_7964_14920# a_7876_14964# vdd pmos_6p0 w=1.22u l=1u
X153 vdd a_7964_11784# a_7876_11828# vdd pmos_6p0 w=1.22u l=1u
X154 vdd a_12780_12919# a_12692_13016# vdd pmos_6p0 w=1.22u l=1u
X155 a_8300_12919# a_8212_13016# vss vss nmos_6p0 w=0.82u l=1u
X156 vdd a_8636_11351# a_8548_11448# vdd pmos_6p0 w=1.22u l=1u
X157 vdd a_3484_10216# a_3396_10260# vdd pmos_6p0 w=1.22u l=1u
X158 nseries_gy nbusout vdd vdd pmos_6p0 w=1.22u l=0.5u
X159 vdd a_15020_14920# a_14932_14964# vdd pmos_6p0 w=1.22u l=1u
X160 vdd a_17596_14920# a_17508_14964# vdd pmos_6p0 w=1.22u l=1u
X161 nseries_gy pseries_gy vss vss nmos_6p0 w=0.82u l=0.6u
X162 pbusin_pshunt pseries_gy vss vss nmos_6p0 w=0.82u l=0.6u
X163 a_8860_11784# a_8772_11828# vss vss nmos_6p0 w=0.82u l=1u
X164 pseries_gy nbusin_nshunt vdd vdd pmos_6p0 w=1.22u l=0.5u
X165 pseries_gy pseries_gy vss vss nmos_6p0 w=0.82u l=0.6u
X166 pbusin_pshunt pseries_gy vss vss nmos_6p0 w=0.82u l=0.6u
X167 vdd a_22076_9783# a_21988_9880# vdd pmos_6p0 w=1.22u l=1u
X168 vdd a_22076_6647# a_21988_6744# vdd pmos_6p0 w=1.22u l=1u
X169 pseries_gygy nseries_gy vss vss nmos_6p0 w=0.82u l=0.6u
X170 nbusin_nshunt pbusin_pshunt vdd vdd pmos_6p0 w=1.22u l=0.5u
X171 nbusout pseries_gy vss vss nmos_6p0 w=0.82u l=0.6u
X172 pbusin_pshunt pbusin_pshunt vss vss nmos_6p0 w=0.82u l=0.6u
X173 a_1692_11784# a_1604_11828# vss vss nmos_6p0 w=0.82u l=1u
X174 pseries_gy pbusout vdd vdd pmos_6p0 w=1.22u l=0.5u
X175 nbusin_nshunt pbusin_pshunt vss vss nmos_6p0 w=0.82u l=0.6u
X176 vdd pshunt_gy nshunt_gy vdd pmos_6p0 w=1.22u l=0.5u
X177 nseries_gy pseries_gy vdd vdd pmos_6p0 w=1.22u l=0.5u
X178 a_16812_8648# a_16724_8692# vss vss nmos_6p0 w=0.82u l=1u
X179 a_15804_14487# a_15716_14584# vss vss nmos_6p0 w=0.82u l=1u
X180 nbusout nbusout vdd vdd pmos_6p0 w=1.22u l=0.5u
X181 nseries_gy pseries_gy vss vss nmos_6p0 w=0.82u l=0.6u
X182 vdd a_20172_14487# a_20084_14584# vdd pmos_6p0 w=1.22u l=1u
X183 a_11436_13352# a_11348_13396# vss vss nmos_6p0 w=0.82u l=1u
X184 nseries_gy nseries_gygy vss vss nmos_6p0 w=0.82u l=0.6u
X185 vdd a_19612_16055# a_19524_16152# vdd pmos_6p0 w=1.22u l=1u
X186 vdd a_3036_14920# a_2948_14964# vdd pmos_6p0 w=1.22u l=1u
X187 vdd a_3932_14487# a_3844_14584# vdd pmos_6p0 w=1.22u l=1u
X188 vdd a_3932_11351# a_3844_11448# vdd pmos_6p0 w=1.22u l=1u
X189 nbusin_nshunt nbusin_nshunt vdd vdd pmos_6p0 w=1.22u l=0.5u
X190 a_19948_12919# a_19860_13016# vss vss nmos_6p0 w=0.82u l=1u
X191 vdd a_3036_11784# a_2948_11828# vdd pmos_6p0 w=1.22u l=1u
X192 vdd nbusin_nshunt pbusin_pshunt vdd pmos_6p0 w=1.22u l=0.5u
X193 pbusout pbusout vdd vdd pmos_6p0 w=1.22u l=0.5u
X194 nbusin_nshunt nshunt_gy vdd vdd pmos_6p0 w=1.22u l=0.5u
X195 nseries_gy nseries_gygy vdd vdd pmos_6p0 w=1.22u l=0.5u
X196 pseries_gy pseries_gy vss vss nmos_6p0 w=0.82u l=0.6u
X197 vdd a_13564_14487# a_13476_14584# vdd pmos_6p0 w=1.22u l=1u
X198 pseries_gy nseries_gy vdd vdd pmos_6p0 w=1.22u l=0.5u
X199 pbusout nbusout vdd vdd pmos_6p0 w=1.22u l=0.5u
X200 a_2140_16055# a_2052_16152# vss vss nmos_6p0 w=0.82u l=1u
X201 nshunt_gy pbusin_pshunt vdd vdd pmos_6p0 w=1.22u l=0.5u
X202 a_1692_6647# a_1604_6744# vss vss nmos_6p0 w=0.82u l=1u
X203 pbusout pbusout vdd vdd pmos_6p0 w=1.22u l=0.5u
X204 pseries_gygy nseries_gygy vdd vdd pmos_6p0 w=1.22u l=0.5u
X205 vdd pbusin_pshunt nshunt_gy vdd pmos_6p0 w=1.22u l=0.5u
X206 a_1692_3511# a_1604_3608# vss vss nmos_6p0 w=0.82u l=1u
X207 nbusin_nshunt nbusin_nshunt vss vss nmos_6p0 w=0.82u l=0.6u
X208 vdd a_21292_3511# a_21204_3608# vdd pmos_6p0 w=1.22u l=1u
X209 pseries_gy pseries_gygy vss vss nmos_6p0 w=0.82u l=0.6u
X210 nseries_gy nseries_gygy vdd vdd pmos_6p0 w=1.22u l=0.5u
X211 vdd pshunt_gy pshunt_gy vdd pmos_6p0 w=1.22u l=0.5u
X212 a_11884_13352# a_11796_13396# vss vss nmos_6p0 w=0.82u l=1u
X213 nbusin_nshunt pbusin_pshunt vss vss nmos_6p0 w=0.82u l=0.6u
X214 nseries_gy nbusout vdd vdd pmos_6p0 w=1.22u l=0.5u
X215 vdd a_3484_14920# a_3396_14964# vdd pmos_6p0 w=1.22u l=1u
X216 a_9644_13352# a_9556_13396# vss vss nmos_6p0 w=0.82u l=1u
X217 vdd a_3484_11784# a_3396_11828# vdd pmos_6p0 w=1.22u l=1u
X218 nseries_gy nbusout vdd vdd pmos_6p0 w=1.22u l=0.5u
X219 pseries_gy pseries_gygy vss vss nmos_6p0 w=0.82u l=0.6u
X220 vdd a_20172_13352# a_20084_13396# vdd pmos_6p0 w=1.22u l=1u
X221 vdd a_3036_16055# a_2948_16152# vdd pmos_6p0 w=1.22u l=1u
X222 vdd a_6060_16055# a_5972_16152# vdd pmos_6p0 w=1.22u l=1u
X223 vdd a_3932_13352# a_3844_13396# vdd pmos_6p0 w=1.22u l=1u
X224 vdd a_6060_12919# a_5972_13016# vdd pmos_6p0 w=1.22u l=1u
X225 nshunt_gy nshunt_gy vdd vdd pmos_6p0 w=1.22u l=0.5u
X226 vdd a_3036_12919# a_2948_13016# vdd pmos_6p0 w=1.22u l=1u
X227 vdd a_10988_14487# a_10900_14584# vdd pmos_6p0 w=1.22u l=1u
X228 a_19276_13352# a_19188_13396# vss vss nmos_6p0 w=0.82u l=1u
X229 vdd a_10988_11351# a_10900_11448# vdd pmos_6p0 w=1.22u l=1u
X230 nseries_gy pseries_gy vss vss nmos_6p0 w=0.82u l=0.6u
X231 vdd a_8748_14487# a_8660_14584# vdd pmos_6p0 w=1.22u l=1u
X232 pbusin_pshunt pbusin_pshunt vss vss nmos_6p0 w=0.82u l=0.6u
X233 a_7068_14920# a_6980_14964# vss vss nmos_6p0 w=0.82u l=1u
X234 a_4380_11784# a_4292_11828# vss vss nmos_6p0 w=0.82u l=1u
X235 vdd a_20844_8215# a_20756_8312# vdd pmos_6p0 w=1.22u l=1u
X236 pseries_gygy nseries_gy vdd vdd pmos_6p0 w=1.22u l=0.5u
X237 vdd nbusout nseries_gy vdd pmos_6p0 w=1.22u l=0.5u
X238 vdd a_21292_8648# a_21204_8692# vdd pmos_6p0 w=1.22u l=1u
X239 nshunt_gy pshunt_gy vss vss nmos_6p0 w=0.82u l=0.6u
X240 pbusout nbusout vdd vdd pmos_6p0 w=1.22u l=0.5u
X241 vdd a_3484_16055# a_3396_16152# vdd pmos_6p0 w=1.22u l=1u
X242 a_18940_14920# a_18852_14964# vss vss nmos_6p0 w=0.82u l=1u
X243 a_14124_13352# a_14036_13396# vss vss nmos_6p0 w=0.82u l=1u
X244 nseries_gygy pseries_gygy vss vss nmos_6p0 w=0.82u l=0.6u
X245 nseries_gygy pseries_gygy vss vss nmos_6p0 w=0.82u l=0.6u
X246 nseries_gy nseries_gy vss vss nmos_6p0 w=0.82u l=0.6u
X247 a_15916_14920# a_15828_14964# vss vss nmos_6p0 w=0.82u l=1u
X248 vdd a_3484_12919# a_3396_13016# vdd pmos_6p0 w=1.22u l=1u
X249 pseries_gygy nseries_gygy vdd vdd pmos_6p0 w=1.22u l=0.5u
X250 pbusin_pshunt pshunt_gy vdd vdd pmos_6p0 w=1.22u l=0.5u
X251 nseries_gy pbusin_pshunt vss vss nmos_6p0 w=0.82u l=0.6u
X252 nbusin_nshunt nbusin_nshunt vss vss nmos_6p0 w=0.82u l=0.6u
X253 vdd a_10988_13352# a_10900_13396# vdd pmos_6p0 w=1.22u l=1u
X254 vdd a_16252_14487# a_16164_14584# vdd pmos_6p0 w=1.22u l=1u
X255 nbusin_nshunt pbusin_pshunt vss vss nmos_6p0 w=0.82u l=0.6u
X256 vdd a_21516_8215# a_21428_8312# vdd pmos_6p0 w=1.22u l=1u
X257 pseries_gygy nseries_gy vdd vdd pmos_6p0 w=1.22u l=0.5u
X258 nseries_gy nseries_gy vdd vdd pmos_6p0 w=1.22u l=0.5u
X259 nbusout pseries_gy vss vss nmos_6p0 w=0.82u l=0.6u
X260 a_1692_12919# a_1604_13016# vss vss nmos_6p0 w=0.82u l=1u
X261 a_14572_13352# a_14484_13396# vss vss nmos_6p0 w=0.82u l=1u
X262 pbusout nbusout vdd vdd pmos_6p0 w=1.22u l=0.5u
X263 nbusin_nshunt nshunt_gy vss vss nmos_6p0 w=0.82u l=0.6u
X264 a_1692_8215# a_1604_8312# vss vss nmos_6p0 w=0.82u l=1u
X265 vdd a_6172_14920# a_6084_14964# vdd pmos_6p0 w=1.22u l=1u
X266 vdd a_6172_11784# a_6084_11828# vdd pmos_6p0 w=1.22u l=1u
X267 vdd a_8860_3944# a_8772_3988# vdd pmos_6p0 w=1.22u l=1u
X268 pseries_gy pseries_gygy vss vss nmos_6p0 w=0.82u l=0.6u
X269 pseries_gy pseries_gygy vss vss nmos_6p0 w=0.82u l=0.6u
X270 vdd a_6620_13352# a_6532_13396# vdd pmos_6p0 w=1.22u l=1u
X271 a_21516_12919# a_21428_13016# vss vss nmos_6p0 w=0.82u l=1u
X272 pseries_gy pbusout vdd vdd pmos_6p0 w=1.22u l=0.5u
X273 a_6508_14487# a_6420_14584# vss vss nmos_6p0 w=0.82u l=1u
X274 vdd a_2588_9783# a_2500_9880# vdd pmos_6p0 w=1.22u l=1u
X275 a_20620_13352# a_20532_13396# vss vss nmos_6p0 w=0.82u l=1u
X276 vdd a_13228_13352# a_13140_13396# vdd pmos_6p0 w=1.22u l=1u
X277 nseries_gy nseries_gy vdd vdd pmos_6p0 w=1.22u l=0.5u
X278 pshunt_gy nbusin_nshunt vss vss nmos_6p0 w=0.82u l=0.6u
X279 pbusin_pshunt nbusin_nshunt vdd vdd pmos_6p0 w=1.22u l=0.5u
X280 vdd a_21516_7080# a_21428_7124# vdd pmos_6p0 w=1.22u l=1u
X281 pbusin_pshunt pseries_gy vdd vdd pmos_6p0 w=1.22u l=0.5u
X282 pseries_gy pseries_gy vss vss nmos_6p0 w=0.82u l=0.6u
X283 pseries_gy pseries_gygy vss vss nmos_6p0 w=0.82u l=0.6u
X284 pseries_gy pseries_gy vss vss nmos_6p0 w=0.82u l=0.6u
X285 nbusin_nshunt pbusin_pshunt vdd vdd pmos_6p0 w=1.22u l=0.5u
X286 nbusin_nshunt pbusin_pshunt vss vss nmos_6p0 w=0.82u l=0.6u
X287 pseries_gy pseries_gy vdd vdd pmos_6p0 w=1.22u l=0.5u
X288 nseries_gygy pseries_gy vss vss nmos_6p0 w=0.82u l=0.6u
X289 a_21964_12919# a_21876_13016# vss vss nmos_6p0 w=0.82u l=1u
X290 nseries_gy pseries_gy vdd vdd pmos_6p0 w=1.22u l=0.5u
X291 a_6956_14487# a_6868_14584# vss vss nmos_6p0 w=0.82u l=1u
X292 vss nseries_gygy nseries_gygy vss nmos_6p0 w=0.82u l=0.6u
X293 a_2588_13352# a_2500_13396# vss vss nmos_6p0 w=0.82u l=1u
X294 vdd a_13676_13352# a_13588_13396# vdd pmos_6p0 w=1.22u l=1u
X295 a_14012_14487# a_13924_14584# vss vss nmos_6p0 w=0.82u l=1u
X296 a_2588_10216# a_2500_10260# vss vss nmos_6p0 w=0.82u l=1u
X297 vdd a_2588_8648# a_2500_8692# vdd pmos_6p0 w=1.22u l=1u
X298 pbusout nseries_gy vdd vdd pmos_6p0 w=1.22u l=0.5u
X299 vdd a_21964_8215# a_21876_8312# vdd pmos_6p0 w=1.22u l=1u
X300 nseries_gy nseries_gygy vdd vdd pmos_6p0 w=1.22u l=0.5u
X301 pshunt_gy nbusin_nshunt vss vss nmos_6p0 w=0.82u l=0.6u
X302 pshunt_gy nshunt_gy vss vss nmos_6p0 w=0.82u l=0.6u
X303 nshunt_gy nshunt_gy vss vss nmos_6p0 w=0.82u l=0.6u
X304 a_11436_14920# a_11348_14964# vss vss nmos_6p0 w=0.82u l=1u
X305 vdd a_2140_14487# a_2052_14584# vdd pmos_6p0 w=1.22u l=1u
X306 vdd a_2140_11351# a_2052_11448# vdd pmos_6p0 w=1.22u l=1u
X307 a_20844_8648# a_20756_8692# vss vss nmos_6p0 w=0.82u l=1u
X308 nshunt_gy pbusin_pshunt vss vss nmos_6p0 w=0.82u l=0.6u
X309 pbusout nbusout vss vss nmos_6p0 w=0.82u l=0.6u
X310 a_4380_12919# a_4292_13016# vss vss nmos_6p0 w=0.82u l=1u
X311 a_11324_16055# a_11236_16152# vss vss nmos_6p0 w=0.82u l=1u
X312 vdd a_19836_14920# a_19748_14964# vdd pmos_6p0 w=1.22u l=1u
X313 nbusin_nshunt nbusin_nshunt vss vss nmos_6p0 w=0.82u l=0.6u
X314 nseries_gy nseries_gy vss vss nmos_6p0 w=0.82u l=0.6u
X315 nbusin_nshunt nbusin_nshunt vdd vdd pmos_6p0 w=1.22u l=0.5u
X316 nbusout pseries_gy vss vss nmos_6p0 w=0.82u l=0.6u
X317 nbusout pbusout vdd vdd pmos_6p0 w=1.22u l=0.5u
X318 nbusin_nshunt nseries_gy vdd vdd pmos_6p0 w=1.22u l=0.5u
X319 vdd a_5612_16055# a_5524_16152# vdd pmos_6p0 w=1.22u l=1u
X320 vdd a_5612_12919# a_5524_13016# vdd pmos_6p0 w=1.22u l=1u
X321 a_14460_14487# a_14372_14584# vss vss nmos_6p0 w=0.82u l=1u
X322 a_18828_13352# a_18740_13396# vss vss nmos_6p0 w=0.82u l=1u
X323 a_11436_14487# a_11348_14584# vss vss nmos_6p0 w=0.82u l=1u
X324 a_10092_13352# a_10004_13396# vss vss nmos_6p0 w=0.82u l=1u
X325 a_11436_11351# a_11348_11448# vss vss nmos_6p0 w=0.82u l=1u
X326 pbusin_pshunt pbusin_pshunt vss vss nmos_6p0 w=0.82u l=0.6u
X327 pbusin_pshunt pbusin_pshunt vss vss nmos_6p0 w=0.82u l=0.6u
X328 a_11884_14920# a_11796_14964# vss vss nmos_6p0 w=0.82u l=1u
X329 pseries_gy nseries_gy vdd vdd pmos_6p0 w=1.22u l=0.5u
X330 nbusin_nshunt nshunt_gy vss vss nmos_6p0 w=0.82u l=0.6u
X331 vdd a_15244_16055# a_15156_16152# vdd pmos_6p0 w=1.22u l=1u
X332 a_9644_14920# a_9556_14964# vss vss nmos_6p0 w=0.82u l=1u
X333 nbusout nbusout vss vss nmos_6p0 w=0.82u l=0.6u
X334 nshunt_gy nshunt_gy vss vss nmos_6p0 w=0.82u l=0.6u
X335 vdd a_21964_7080# a_21876_7124# vdd pmos_6p0 w=1.22u l=1u
X336 a_3932_11784# a_3844_11828# vss vss nmos_6p0 w=0.82u l=1u
X337 nseries_gygy pseries_gygy vss vss nmos_6p0 w=0.82u l=0.6u
X338 a_11772_16055# a_11684_16152# vss vss nmos_6p0 w=0.82u l=1u
X339 vdd a_2140_13352# a_2052_13396# vdd pmos_6p0 w=1.22u l=1u
X340 pseries_gy pseries_gygy vss vss nmos_6p0 w=0.82u l=0.6u
X341 pseries_gy pseries_gy vss vss nmos_6p0 w=0.82u l=0.6u
X342 pbusin_pshunt pseries_gy vdd vdd pmos_6p0 w=1.22u l=0.5u
X343 pseries_gy pseries_gygy vss vss nmos_6p0 w=0.82u l=0.6u
X344 a_6508_16055# a_6420_16152# vss vss nmos_6p0 w=0.82u l=1u
X345 a_9532_16055# a_9444_16152# vss vss nmos_6p0 w=0.82u l=1u
X346 vdd a_10540_14920# a_10452_14964# vdd pmos_6p0 w=1.22u l=1u
X347 vdd a_21740_11784# a_21652_11828# vdd pmos_6p0 w=1.22u l=1u
X348 vdd a_16812_3944# a_16724_3988# vdd pmos_6p0 w=1.22u l=1u
X349 vdd a_10540_11784# a_10452_11828# vdd pmos_6p0 w=1.22u l=1u
X350 nseries_gy nbusout vss vss nmos_6p0 w=0.82u l=0.6u
X351 pbusin_pshunt pseries_gy vss vss nmos_6p0 w=0.82u l=0.6u
X352 pshunt_gy nbusin_nshunt vdd vdd pmos_6p0 w=1.22u l=0.5u
X353 pshunt_gy nbusin_nshunt vss vss nmos_6p0 w=0.82u l=0.6u
X354 pseries_gy pbusout vdd vdd pmos_6p0 w=1.22u l=0.5u
X355 a_19164_16055# a_19076_16152# vss vss nmos_6p0 w=0.82u l=1u
X356 a_11884_14487# a_11796_14584# vss vss nmos_6p0 w=0.82u l=1u
X357 a_9196_12919# a_9108_13016# vss vss nmos_6p0 w=0.82u l=1u
X358 a_2140_3511# a_2052_3608# vss vss nmos_6p0 w=0.82u l=1u
X359 nseries_gygy pseries_gy vdd vdd pmos_6p0 w=1.22u l=0.5u
X360 pshunt_gy nbusin_nshunt vss vss nmos_6p0 w=0.82u l=0.6u
X361 nseries_gy pbusin_pshunt vdd vdd pmos_6p0 w=1.22u l=0.5u
X362 nseries_gy pbusin_pshunt vss vss nmos_6p0 w=0.82u l=0.6u
X363 a_9644_14487# a_9556_14584# vss vss nmos_6p0 w=0.82u l=1u
X364 vdd a_12668_16055# a_12580_16152# vdd pmos_6p0 w=1.22u l=1u
X365 vdd a_15692_16055# a_15604_16152# vdd pmos_6p0 w=1.22u l=1u
X366 a_5276_13352# a_5188_13396# vss vss nmos_6p0 w=0.82u l=1u
X367 vdd a_15804_14487# a_15716_14584# vdd pmos_6p0 w=1.22u l=1u
X368 pseries_gy nseries_gy vdd vdd pmos_6p0 w=1.22u l=0.5u
X369 pseries_gy nseries_gy vdd vdd pmos_6p0 w=1.22u l=0.5u
X370 vss nseries_gy pseries_gygy vss nmos_6p0 w=0.82u l=0.6u
X371 pbusout pbusout vss vss nmos_6p0 w=0.82u l=0.6u
X372 pbusout nseries_gy vss vss nmos_6p0 w=0.82u l=0.6u
X373 nseries_gy nseries_gy vdd vdd pmos_6p0 w=1.22u l=0.5u
X374 a_14124_14920# a_14036_14964# vss vss nmos_6p0 w=0.82u l=1u
X375 a_19276_14487# a_19188_14584# vss vss nmos_6p0 w=0.82u l=1u
X376 a_6956_16055# a_6868_16152# vss vss nmos_6p0 w=0.82u l=1u
X377 a_9980_16055# a_9892_16152# vss vss nmos_6p0 w=0.82u l=1u
X378 pseries_gy nbusin_nshunt vss vss nmos_6p0 w=0.82u l=0.6u
X379 pbusin_pshunt pseries_gy vdd vdd pmos_6p0 w=1.22u l=0.5u
X380 vdd a_13564_5079# a_13476_5176# vdd pmos_6p0 w=1.22u l=1u
X381 a_10988_11784# a_10900_11828# vss vss nmos_6p0 w=0.82u l=1u
X382 pbusin_pshunt nbusin_nshunt vss vss nmos_6p0 w=0.82u l=0.6u
X383 vdd a_5724_14920# a_5636_14964# vdd pmos_6p0 w=1.22u l=1u
X384 nshunt_gy pbusin_pshunt vdd vdd pmos_6p0 w=1.22u l=0.5u
X385 vdd a_21740_16055# a_21652_16152# vdd pmos_6p0 w=1.22u l=1u
X386 a_16588_16055# a_16500_16152# vss vss nmos_6p0 w=0.82u l=1u
X387 a_21180_14920# a_21092_14964# vss vss nmos_6p0 w=0.82u l=1u
X388 vdd a_5724_11784# a_5636_11828# vdd pmos_6p0 w=1.22u l=1u
X389 vdd a_1692_9783# a_1604_9880# vdd pmos_6p0 w=1.22u l=1u
X390 vdd a_1692_3511# a_1604_3608# vdd pmos_6p0 w=1.22u l=1u
X391 pseries_gygy nseries_gy vss vss nmos_6p0 w=0.82u l=0.6u
X392 vdd a_1692_6647# a_1604_6744# vdd pmos_6p0 w=1.22u l=1u
X393 pshunt_gy nbusin_nshunt vdd vdd pmos_6p0 w=1.22u l=0.5u
X394 pshunt_gy nbusin_nshunt vss vss nmos_6p0 w=0.82u l=0.6u
X395 vdd a_10540_12919# a_10452_13016# vdd pmos_6p0 w=1.22u l=1u
X396 pseries_gy nseries_gy vdd vdd pmos_6p0 w=1.22u l=0.5u
X397 vdd a_8300_16055# a_8212_16152# vdd pmos_6p0 w=1.22u l=1u
X398 vdd a_8300_12919# a_8212_13016# vdd pmos_6p0 w=1.22u l=1u
X399 pseries_gy pseries_gy vdd vdd pmos_6p0 w=1.22u l=0.5u
X400 a_14124_11351# a_14036_11448# vss vss nmos_6p0 w=0.82u l=1u
X401 a_14572_14920# a_14484_14964# vss vss nmos_6p0 w=0.82u l=1u
X402 pseries_gy nseries_gy vdd vdd pmos_6p0 w=1.22u l=0.5u
X403 pseries_gy nseries_gy vss vss nmos_6p0 w=0.82u l=0.6u
X404 a_6620_11784# a_6532_11828# vss vss nmos_6p0 w=0.82u l=1u
X405 pseries_gy nbusin_nshunt vss vss nmos_6p0 w=0.82u l=0.6u
X406 pseries_gy nseries_gy vss vss nmos_6p0 w=0.82u l=0.6u
X407 a_20844_9783# a_20756_9880# vss vss nmos_6p0 w=0.82u l=1u
X408 pseries_gy nbusin_nshunt vdd vdd pmos_6p0 w=1.22u l=0.5u
X409 vdd a_1692_10216# a_1604_10260# vdd pmos_6p0 w=1.22u l=1u
X410 pbusin_pshunt nbusin_nshunt vss vss nmos_6p0 w=0.82u l=0.6u
X411 nshunt_gy pbusin_pshunt vdd vdd pmos_6p0 w=1.22u l=0.5u
X412 a_13228_11784# a_13140_11828# vss vss nmos_6p0 w=0.82u l=1u
X413 vdd a_1692_8648# a_1604_8692# vdd pmos_6p0 w=1.22u l=1u
X414 nseries_gygy pseries_gygy vdd vdd pmos_6p0 w=1.22u l=0.5u
X415 nbusin_nshunt nshunt_gy vdd vdd pmos_6p0 w=1.22u l=0.5u
X416 vdd nseries_gygy pseries_gygy vdd pmos_6p0 w=1.22u l=0.5u
X417 nseries_gygy pseries_gy vdd vdd pmos_6p0 w=1.22u l=0.5u
X418 pseries_gy pseries_gygy vss vss nmos_6p0 w=0.82u l=0.6u
X419 nseries_gy pseries_gy vdd vdd pmos_6p0 w=1.22u l=0.5u
X420 nseries_gy pseries_gy vss vss nmos_6p0 w=0.82u l=0.6u
X421 vdd a_10988_9783# a_10900_9880# vdd pmos_6p0 w=1.22u l=1u
X422 nseries_gy pseries_gy vdd vdd pmos_6p0 w=1.22u l=0.5u
X423 pseries_gygy nseries_gy vss vss nmos_6p0 w=0.82u l=0.6u
X424 nbusout pseries_gy vss vss nmos_6p0 w=0.82u l=0.6u
X425 nbusin_nshunt nbusin_nshunt vss vss nmos_6p0 w=0.82u l=0.6u
X426 nseries_gy pbusin_pshunt vss vss nmos_6p0 w=0.82u l=0.6u
X427 a_12108_3511# a_12020_3608# vss vss nmos_6p0 w=0.82u l=1u
X428 pseries_gy pbusout vdd vdd pmos_6p0 w=1.22u l=0.5u
X429 nseries_gy pbusin_pshunt vss vss nmos_6p0 w=0.82u l=0.6u
X430 pbusin_pshunt pseries_gy vdd vdd pmos_6p0 w=1.22u l=0.5u
X431 pseries_gy nseries_gy vss vss nmos_6p0 w=0.82u l=0.6u
X432 a_2140_8215# a_2052_8312# vss vss nmos_6p0 w=0.82u l=1u
X433 pbusin_pshunt pshunt_gy vdd vdd pmos_6p0 w=1.22u l=0.5u
X434 a_13900_16055# a_13812_16152# vss vss nmos_6p0 w=0.82u l=1u
X435 a_19388_14920# a_19300_14964# vss vss nmos_6p0 w=0.82u l=1u
X436 vdd a_19948_12919# a_19860_13016# vdd pmos_6p0 w=1.22u l=1u
X437 a_3932_12919# a_3844_13016# vss vss nmos_6p0 w=0.82u l=1u
X438 a_20620_14487# a_20532_14584# vss vss nmos_6p0 w=0.82u l=1u
X439 nseries_gy nbusout vss vss nmos_6p0 w=0.82u l=0.6u
X440 a_13676_11784# a_13588_11828# vss vss nmos_6p0 w=0.82u l=1u
X441 a_20620_11351# a_20532_11448# vss vss nmos_6p0 w=0.82u l=1u
X442 a_2588_14920# a_2500_14964# vss vss nmos_6p0 w=0.82u l=1u
X443 vdd a_8412_14920# a_8324_14964# vdd pmos_6p0 w=1.22u l=1u
X444 nseries_gygy pseries_gygy vss vss nmos_6p0 w=0.82u l=0.6u
X445 pseries_gygy pseries_gygy vss vss nmos_6p0 w=0.82u l=0.6u
X446 pseries_gy pseries_gygy vss vss nmos_6p0 w=0.82u l=0.6u
X447 vdd a_8412_11784# a_8324_11828# vdd pmos_6p0 w=1.22u l=1u
X448 vdd a_3036_9783# a_2948_9880# vdd pmos_6p0 w=1.22u l=1u
X449 pshunt_gy nshunt_gy vdd vdd pmos_6p0 w=1.22u l=0.5u
X450 nbusin_nshunt nshunt_gy vdd vdd pmos_6p0 w=1.22u l=0.5u
X451 a_13564_12919# a_13476_13016# vss vss nmos_6p0 w=0.82u l=1u
X452 nbusin_nshunt nseries_gy vdd vdd pmos_6p0 w=1.22u l=0.5u
X453 nseries_gy pbusin_pshunt vss vss nmos_6p0 w=0.82u l=0.6u
X454 nbusout pseries_gy vdd vdd pmos_6p0 w=1.22u l=0.5u
X455 pshunt_gy pshunt_gy vss vss nmos_6p0 w=0.82u l=0.6u
X456 vdd a_18044_14920# a_17956_14964# vdd pmos_6p0 w=1.22u l=1u
X457 nbusin_nshunt nseries_gy vss vss nmos_6p0 w=0.82u l=0.6u
X458 pseries_gygy nseries_gygy vdd vdd pmos_6p0 w=1.22u l=0.5u
X459 pseries_gy pseries_gygy vdd vdd pmos_6p0 w=1.22u l=0.5u
X460 vdd a_17820_16055# a_17732_16152# vdd pmos_6p0 w=1.22u l=1u
X461 nseries_gy nseries_gy vss vss nmos_6p0 w=0.82u l=0.6u
X462 nbusin_nshunt nbusin_nshunt vss vss nmos_6p0 w=0.82u l=0.6u
X463 nseries_gy nseries_gy vdd vdd pmos_6p0 w=1.22u l=0.5u
X464 nshunt_gy pbusin_pshunt vdd vdd pmos_6p0 w=1.22u l=0.5u
X465 a_2588_14487# a_2500_14584# vss vss nmos_6p0 w=0.82u l=1u
X466 a_2588_11351# a_2500_11448# vss vss nmos_6p0 w=0.82u l=1u
X467 pseries_gy pbusout vss vss nmos_6p0 w=0.82u l=0.6u
X468 vdd a_8860_14920# a_8772_14964# vdd pmos_6p0 w=1.22u l=1u
X469 vdd a_22076_14920# a_21988_14964# vdd pmos_6p0 w=1.22u l=1u
X470 vdd a_7068_13352# a_6980_13396# vdd pmos_6p0 w=1.22u l=1u
X471 vdd a_8860_11784# a_8772_11828# vdd pmos_6p0 w=1.22u l=1u
X472 nbusin_nshunt pbusin_pshunt vss vss nmos_6p0 w=0.82u l=0.6u
X473 a_10092_14920# a_10004_14964# vss vss nmos_6p0 w=0.82u l=1u
X474 vdd a_6508_14487# a_6420_14584# vdd pmos_6p0 w=1.22u l=1u
X475 vdd a_4380_10216# a_4292_10260# vdd pmos_6p0 w=1.22u l=1u
X476 nseries_gygy nseries_gygy vss vss nmos_6p0 w=0.82u l=0.6u
X477 nbusin_nshunt nshunt_gy vss vss nmos_6p0 w=0.82u l=0.6u
X478 a_10988_12919# a_10900_13016# vss vss nmos_6p0 w=0.82u l=1u
X479 pbusin_pshunt pseries_gy vss vss nmos_6p0 w=0.82u l=0.6u
X480 pshunt_gy nshunt_gy vdd vdd pmos_6p0 w=1.22u l=0.5u
X481 nseries_gy nseries_gy vdd vdd pmos_6p0 w=1.22u l=0.5u