* NGSPICE file created from gf180mcu_fd_io__in_c_flat.ext - technology: gf180mcuC

.subckt gf180mcu_fd_io__in_c_flat DVDD DVSS PAD Y PD VDD VSS PU
X0 GF_NI_IN_C_BASE_0.comp018green_out_sigbuf_oe_2.ENB GF_NI_IN_C_BASE_0.comp018green_out_sigbuf_oe_2.EN DVDD DVDD pfet_06v0 ad=2.64p pd=12.9u as=1.56p ps=6.52u w=6u l=0.7u
X1 GF_NI_IN_C_BASE_0.pdrive_y_<1> GF_NI_IN_C_BASE_0.comp018green_sigbuf_1_0.ZB GF_NI_IN_C_BASE_0.pdrive_x_<1> DVSS nfet_06v0 ad=1.56p pd=6.52u as=2.64p ps=12.9u w=6u l=0.7u
X2 a_5463_64226# GF_NI_IN_C_BASE_0.comp018green_inpath_cms_smt_0.PAD GF_NI_IN_C_BASE_0.comp018green_inpath_cms_smt_0.comp018green_in_drv_0.A DVSS nfet_06v0 ad=1.32p pd=6.88u as=0.78p ps=3.52u w=3u l=0.7u
X3 PU a_12527_59719# GF_NI_IN_C_BASE_0.comp018green_inpath_cms_smt_0.comp018green_in_logic_pupd_0.comp018green_std_xor2_0.Z VSS nfet_06v0 ad=0.66p pd=3.88u as=0.66p ps=3.88u w=1.5u l=0.7u
X4 VDD PU a_12715_59719# VDD pfet_06v0 ad=1.32p pd=6.88u as=1.32p ps=6.88u w=3u l=0.7u
X5 VSS GF_NI_IN_C_BASE_0.comp018green_sigbuf_1_0.A a_5502_50171# VSS nfet_06v0 ad=1.32p pd=6.88u as=0.78p ps=3.52u w=3u l=0.7u
X6 a_11294_42658# GF_NI_IN_C_BASE_0.comp018green_out_sigbuf_a_0.AB DVSS DVSS nfet_06v0 ad=2.64p pd=12.9u as=1.56p ps=6.52u w=6u l=0.7u
X7 DVSS a_3891_66114# GF_NI_IN_C_BASE_0.comp018green_inpath_cms_smt_0.comp018green_sigbuf_1.Z DVSS nfet_06v0 ad=0.39p pd=2.02u as=0.39p ps=2.02u w=1.5u l=0.7u
X8 Y GF_NI_IN_C_BASE_0.comp018green_inpath_cms_smt_0.comp018green_in_drv_0.Z VSS VSS nfet_06v0 ad=0.39p pd=2.02u as=0.39p ps=2.02u w=1.5u l=0.7u
X9 a_2591_61041# a_2311_53799# DVDD ppolyf_u r_width=0.8u r_length=35.7u
X10 a_1260_51859# GF_NI_IN_C_BASE_0.comp018green_sigbuf_1_0.A VDD VDD pfet_06v0 ad=0.78p pd=3.52u as=1.32p ps=6.88u w=3u l=0.7u
X11 a_5502_50171# GF_NI_IN_C_BASE_0.comp018green_sigbuf_1_0.A a_3961_50127# VSS nfet_06v0 ad=0.78p pd=3.52u as=1.32p ps=6.88u w=3u l=0.7u
X12 VSS GF_NI_IN_C_BASE_0.comp018green_sigbuf_1_0.A a_10720_50171# VSS nfet_06v0 ad=1.32p pd=6.88u as=0.78p ps=3.52u w=3u l=0.7u
X13 GF_NI_IN_C_BASE_0.ndrive_Y_<1> a_5346_42702# DVDD DVDD pfet_06v0 ad=5.28p pd=24.9u as=3.12p ps=12.5u w=12u l=0.7u
X14 a_9536_64031# GF_NI_IN_C_BASE_0.comp018green_inpath_cms_smt_0.comp018green_in_drv_0.A DVDD DVDD pfet_06v0 ad=0.88p pd=4.88u as=0.88p ps=4.88u w=2u l=0.7u
X15 a_7790_42658# GF_NI_IN_C_BASE_0.comp018green_out_sigbuf_a_0.AB DVDD DVDD pfet_06v0 ad=5.28p pd=24.9u as=3.12p ps=12.5u w=12u l=0.7u
X16 GF_NI_IN_C_BASE_0.ndrive_x_<2> a_7790_42658# DVSS DVSS nfet_06v0 ad=1.56p pd=6.52u as=2.64p ps=12.9u w=6u l=0.7u
X17 a_10720_50171# GF_NI_IN_C_BASE_0.comp018green_sigbuf_1_0.A a_9197_50127# VSS nfet_06v0 ad=0.78p pd=3.52u as=1.32p ps=6.88u w=3u l=0.7u
X18 PAD GF_NI_IN_C_BASE_0.ndrive_x_<0> DVSS DVSS nfet_06v0_dss d_sab=3.78u s_sab=0.28u ad=0.144n pd=83.6u as=10.6p ps=76.6u w=38u l=1.15u  
X19 DVDD GF_NI_IN_C_BASE_0.comp018green_out_sigbuf_oe_1.EN a_7790_42658# DVDD pfet_06v0 ad=3.12p pd=12.5u as=3.12p ps=12.5u w=12u l=0.7u
X20 DVDD DVSS cap_nmos_06v0 c_width=5u c_length=1.5u
X21 a_9135_66114# GF_NI_IN_C_BASE_0.comp018green_inpath_cms_smt_0.comp018green_sigbuf_0.A VDD VDD pfet_06v0 ad=1.32p pd=6.88u as=1.32p ps=6.88u w=3u l=0.7u
X22 GF_NI_IN_C_BASE_0.comp018green_sigbuf_1_0.ZB GF_NI_IN_C_BASE_0.comp018green_sigbuf_1_0.Z DVDD DVDD pfet_06v0 ad=0.78p pd=3.52u as=0.78p ps=3.52u w=3u l=0.7u
X23 DVDD GF_NI_IN_C_BASE_0.pdrive_x_<2> PAD DVDD pfet_06v0_dss d_sab=0.28u s_sab=2.78u ad=11.2p pd=80.6u as=0.111n ps=85.6u w=40u l=0.7u  
X24 a_3891_66114# GF_NI_IN_C_BASE_0.comp018green_inpath_cms_smt_0.IE VSS VSS nfet_06v0 ad=0.66p pd=3.88u as=0.66p ps=3.88u w=1.5u l=0.7u
X25 GF_NI_IN_C_BASE_0.comp018green_inpath_cms_smt_0.IE VDD VDD ppolyf_u r_width=0.8u r_length=3.9u
X26 DVSS a_782_42658# GF_NI_IN_C_BASE_0.ndrive_y_<0> DVSS nfet_06v0 ad=1.56p pd=6.52u as=1.56p ps=6.52u w=6u l=0.7u
X27 PAD GF_NI_IN_C_BASE_0.pdrive_x_<0> DVDD DVDD pfet_06v0_dss d_sab=2.78u s_sab=0.28u ad=0.111n pd=85.6u as=11.2p ps=80.6u w=40u l=0.7u  
X28 DVSS a_12068_66070# GF_NI_IN_C_BASE_0.comp018green_inpath_cms_smt_0.comp018green_sigbuf_2.Z DVSS nfet_06v0 ad=0.66p pd=3.88u as=0.39p ps=2.02u w=1.5u l=0.7u
X29 DVDD a_1842_42702# GF_NI_IN_C_BASE_0.pdrive_x_<0> DVDD pfet_06v0 ad=5.28p pd=24.9u as=3.12p ps=12.5u w=12u l=0.7u
X30 GF_NI_IN_C_BASE_0.comp018green_inpath_cms_smt_0.comp018green_sigbuf_0.Z a_9135_66114# DVSS DVSS nfet_06v0 ad=0.39p pd=2.02u as=0.66p ps=3.88u w=1.5u l=0.7u
X31 GF_NI_IN_C_BASE_0.ndrive_y_<0> a_782_42658# DVSS DVSS nfet_06v0 ad=1.56p pd=6.52u as=1.56p ps=6.52u w=6u l=0.7u
X32 DVDD a_8850_42702# GF_NI_IN_C_BASE_0.pdrive_y_<2> DVDD pfet_06v0 ad=3.12p pd=12.5u as=3.12p ps=12.5u w=12u l=0.7u
X33 GF_NI_IN_C_BASE_0.comp018green_sigbuf_1_0.A VSS VDD ppolyf_u r_width=0.8u r_length=3.9u
X34 DVDD DVSS cap_nmos_06v0 c_width=5u c_length=1.5u
X35 DVSS GF_NI_IN_C_BASE_0.comp018green_inpath_cms_smt_0.comp018green_sigbuf_1.Z a_4235_64174# DVSS nfet_06v0 ad=0.832p pd=3.72u as=0.832p ps=3.72u w=3.2u l=0.7u
X36 a_4157_62997# GF_NI_IN_C_BASE_0.comp018green_inpath_cms_smt_0.comp018green_sigbuf_3.Z DVDD DVDD pfet_06v0 ad=0.39p pd=2.02u as=0.66p ps=3.88u w=1.5u l=0.7u
D0 VSS GF_NI_IN_C_BASE_0.comp018green_sigbuf_1_0.A diode_pd2nw_06v0 pj=1.92p area=0.23p
X37 DVDD a_12354_42702# GF_NI_IN_C_BASE_0.ndrive_Y_<3> DVDD pfet_06v0 ad=3.12p pd=12.5u as=3.12p ps=12.5u w=12u l=0.7u
X38 a_5346_42702# GF_NI_IN_C_BASE_0.comp018green_out_sigbuf_oe_1.EN DVDD DVDD pfet_06v0 ad=3.12p pd=12.5u as=3.12p ps=12.5u w=12u l=0.7u
X39 a_4235_64174# GF_NI_IN_C_BASE_0.comp018green_inpath_cms_smt_0.comp018green_sigbuf_1.Z DVSS DVSS nfet_06v0 ad=0.832p pd=3.72u as=0.832p ps=3.72u w=3.2u l=0.7u
X40 GF_NI_IN_C_BASE_0.comp018green_inpath_cms_smt_0.comp018green_in_drv_0.A GF_NI_IN_C_BASE_0.comp018green_inpath_cms_smt_0.comp018green_sigbuf_3.Z a_4157_62997# DVSS nfet_06v0 ad=0.66p pd=3.88u as=0.66p ps=3.88u w=1.5u l=0.7u
X41 DVDD a_4286_42658# GF_NI_IN_C_BASE_0.pdrive_y_<1> DVDD pfet_06v0 ad=5.28p pd=24.9u as=3.12p ps=12.5u w=12u l=0.7u
X42 VDD GF_NI_IN_C_BASE_0.comp018green_sigbuf_1_0.A a_6824_66070# VDD pfet_06v0 ad=1.32p pd=6.88u as=1.32p ps=6.88u w=3u l=0.7u
X43 DVSS GF_NI_IN_C_BASE_0.comp018green_inpath_cms_smt_0.comp018green_sigbuf_0.Z GF_NI_IN_C_BASE_0.comp018green_inpath_cms_smt_0.comp018green_sigbuf_0.ZB DVSS nfet_06v0 ad=0.66p pd=3.88u as=0.39p ps=2.02u w=1.5u l=0.7u
X44 a_5463_64226# a_3430_64174# DVDD DVSS nfet_06v0 ad=0.572p pd=3.48u as=0.572p ps=3.48u w=1.3u l=0.7u
X45 GF_NI_IN_C_BASE_0.ndrive_Y_<3> GF_NI_IN_C_BASE_0.comp018green_sigbuf_1_0.Z GF_NI_IN_C_BASE_0.ndrive_x_<3> DVDD pfet_06v0 ad=3.12p pd=12.5u as=3.12p ps=12.5u w=12u l=0.7u
X46 a_2031_61041# a_2311_53799# DVDD ppolyf_u r_width=0.8u r_length=35.7u
X47 GF_NI_IN_C_BASE_0.ndrive_y_<2> GF_NI_IN_C_BASE_0.comp018green_sigbuf_1_0.Z GF_NI_IN_C_BASE_0.ndrive_x_<2> DVDD pfet_06v0 ad=5.28p pd=24.9u as=3.12p ps=12.5u w=12u l=0.7u
X48 GF_NI_IN_C_BASE_0.ndrive_x_<3> DVSS GF_NI_IN_C_BASE_0.ndrive_Y_<3> DVDD pfet_06v0 ad=0.528p pd=3.28u as=0.528p ps=3.28u w=1.2u l=0.7u
X49 DVSS a_5346_42702# GF_NI_IN_C_BASE_0.ndrive_x_<1> DVSS nfet_06v0 ad=2.64p pd=12.9u as=1.56p ps=6.52u w=6u l=0.7u
X50 DVSS GF_NI_IN_C_BASE_0.comp018green_out_sigbuf_a_0.AB a_8850_42702# DVSS nfet_06v0 ad=1.56p pd=6.52u as=2.64p ps=12.9u w=6u l=0.7u
D1 DVSS GF_NI_IN_C_BASE_0.comp018green_inpath_cms_smt_0.PAD diode_nd2ps_06v0 pj=42p area=20p
X51 VDD GF_NI_IN_C_BASE_0.comp018green_sigbuf_1_0.A a_3961_50127# VDD pfet_06v0 ad=1.32p pd=6.88u as=0.78p ps=3.52u w=3u l=0.7u
X52 DVDD DVSS cap_nmos_06v0 c_width=5u c_length=1.5u
X53 GF_NI_IN_C_BASE_0.comp018green_inpath_cms_smt_0.comp018green_in_logic_pupd_0.comp018green_std_xor2_0.Z a_12527_59719# a_12715_59719# VDD pfet_06v0 ad=1.32p pd=6.88u as=1.32p ps=6.88u w=3u l=0.7u
X54 GF_NI_IN_C_BASE_0.pdrive_y_<0> a_1842_42702# DVDD DVDD pfet_06v0 ad=3.12p pd=12.5u as=5.28p ps=24.9u w=12u l=0.7u
X55 DVDD DVSS cap_nmos_06v0 c_width=5u c_length=1.5u
X56 a_3961_50127# GF_NI_IN_C_BASE_0.comp018green_sigbuf_1_0.A VDD VDD pfet_06v0 ad=0.78p pd=3.52u as=1.32p ps=6.88u w=3u l=0.7u
X57 VDD GF_NI_IN_C_BASE_0.comp018green_sigbuf_1_0.A a_9197_50127# VDD pfet_06v0 ad=1.32p pd=6.88u as=0.78p ps=3.52u w=3u l=0.7u
X58 a_9197_50127# GF_NI_IN_C_BASE_0.comp018green_sigbuf_1_0.A VDD VDD pfet_06v0 ad=0.78p pd=3.52u as=1.32p ps=6.88u w=3u l=0.7u
X59 DVDD GF_NI_IN_C_BASE_0.comp018green_inpath_cms_smt_0.comp018green_sigbuf_1.Z GF_NI_IN_C_BASE_0.comp018green_inpath_cms_smt_0.comp018green_sigbuf_1.ZB DVDD pfet_06v0 ad=1.32p pd=6.88u as=0.78p ps=3.52u w=3u l=0.7u
X60 GF_NI_IN_C_BASE_0.comp018green_inpath_cms_smt_0.comp018green_sigbuf_1.ZB GF_NI_IN_C_BASE_0.comp018green_inpath_cms_smt_0.comp018green_sigbuf_1.Z DVDD DVDD pfet_06v0 ad=0.78p pd=3.52u as=0.78p ps=3.52u w=3u l=0.7u
X61 VSS PU a_12966_56656# VSS nfet_06v0 ad=1.32p pd=6.88u as=0.78p ps=3.52u w=3u l=0.7u
X62 GF_NI_IN_C_BASE_0.pdrive_x_<0> DVDD GF_NI_IN_C_BASE_0.pdrive_y_<0> DVSS nfet_06v0 ad=0.528p pd=3.28u as=0.528p ps=3.28u w=1.2u l=0.7u
X63 PAD GF_NI_IN_C_BASE_0.pdrive_y_<0> DVDD DVDD pfet_06v0_dss d_sab=2.78u s_sab=0.28u ad=0.111n pd=85.6u as=11.2p ps=80.6u w=40u l=0.7u  
X64 a_5575_62984# a_4157_62997# DVSS DVDD pfet_06v0 ad=0.836p pd=4.68u as=0.494p ps=2.42u w=1.9u l=0.7u
X65 a_11617_50255# GF_NI_IN_C_BASE_0.comp018green_sigbuf_1_0.A VDD VDD pfet_06v0 ad=1.32p pd=6.88u as=1.32p ps=6.88u w=3u l=0.7u
X66 DVSS GF_NI_IN_C_BASE_0.comp018green_out_sigbuf_oe_2.ENB a_11294_42658# DVSS nfet_06v0 ad=1.56p pd=6.52u as=1.56p ps=6.52u w=6u l=0.7u
X67 a_2591_61041# a_2871_53799# DVDD ppolyf_u r_width=0.8u r_length=35.7u
X68 DVSS GF_NI_IN_C_BASE_0.ndrive_Y_<3> PAD DVSS nfet_06v0_dss d_sab=0.28u s_sab=3.78u ad=10.6p pd=76.6u as=0.144n ps=83.6u w=38u l=1.15u  
X69 DVSS a_4157_62997# a_5575_62984# DVDD pfet_06v0 ad=0.494p pd=2.42u as=0.836p ps=4.68u w=1.9u l=0.7u
X70 VDD PU GF_NI_IN_C_BASE_0.comp018green_inpath_cms_smt_0.comp018green_sigbuf_2.A VDD pfet_06v0 ad=1.32p pd=6.88u as=0.78p ps=3.52u w=3u l=0.7u
X71 GF_NI_IN_C_BASE_0.pdrive_x_<0> GF_NI_IN_C_BASE_0.comp018green_sigbuf_1_0.ZB GF_NI_IN_C_BASE_0.pdrive_y_<0> DVSS nfet_06v0 ad=2.64p pd=12.9u as=1.56p ps=6.52u w=6u l=0.7u
X72 DVDD a_11294_42658# GF_NI_IN_C_BASE_0.pdrive_x_<3> DVDD pfet_06v0 ad=3.12p pd=12.5u as=3.12p ps=12.5u w=12u l=0.7u
X73 GF_NI_IN_C_BASE_0.pdrive_y_<1> a_4286_42658# DVDD DVDD pfet_06v0 ad=3.12p pd=12.5u as=3.12p ps=12.5u w=12u l=0.7u
X74 a_9536_64031# GF_NI_IN_C_BASE_0.comp018green_inpath_cms_smt_0.comp018green_in_drv_0.A DVSS DVSS nfet_06v0 ad=1.76p pd=8.88u as=1.04p ps=4.52u w=4u l=0.7u
D2 VSS GF_NI_IN_C_BASE_0.comp018green_sigbuf_1_0.A diode_pd2nw_06v0 pj=1.92p area=0.23p
D3 VSS VDD diode_pd2nw_06v0 pj=1.92p area=0.23p
X75 PAD GF_NI_IN_C_BASE_0.pdrive_x_<2> DVDD DVDD pfet_06v0_dss d_sab=2.78u s_sab=0.28u ad=0.111n pd=85.6u as=11.2p ps=80.6u w=40u l=0.7u  
X76 a_11294_42658# GF_NI_IN_C_BASE_0.comp018green_out_sigbuf_oe_2.ENB a_12354_42702# DVDD pfet_06v0 ad=5.28p pd=24.9u as=3.12p ps=12.5u w=12u l=0.7u
X77 GF_NI_IN_C_BASE_0.pdrive_x_<3> a_11294_42658# DVDD DVDD pfet_06v0 ad=3.12p pd=12.5u as=5.28p ps=24.9u w=12u l=0.7u
X78 a_5463_64226# GF_NI_IN_C_BASE_0.comp018green_inpath_cms_smt_0.PAD a_4235_64174# DVSS nfet_06v0 ad=1.17p pd=6.18u as=0.689p ps=3.17u w=2.65u l=0.7u
X79 GF_NI_IN_C_BASE_0.comp018green_inpath_cms_smt_0.comp018green_in_drv_0.A GF_NI_IN_C_BASE_0.comp018green_inpath_cms_smt_0.PAD a_5463_64226# DVSS nfet_06v0 ad=0.78p pd=3.52u as=0.78p ps=3.52u w=3u l=0.7u
X80 GF_NI_IN_C_BASE_0.comp018green_inpath_cms_smt_0.comp018green_in_drv_0.A GF_NI_IN_C_BASE_0.comp018green_inpath_cms_smt_0.comp018green_sigbuf_1.Z DVDD DVDD pfet_06v0 ad=0.88p pd=4.88u as=0.52p ps=2.52u w=2u l=0.7u
X81 GF_NI_IN_C_BASE_0.ndrive_x_<3> a_12354_42702# DVSS DVSS nfet_06v0 ad=1.56p pd=6.52u as=1.56p ps=6.52u w=6u l=0.7u
X82 DVSS GF_NI_IN_C_BASE_0.ndrive_y_<0> PAD DVSS nfet_06v0_dss d_sab=0.28u s_sab=3.78u ad=10.6p pd=76.6u as=0.144n ps=83.6u w=38u l=1.15u  
X83 DVSS a_12354_42702# GF_NI_IN_C_BASE_0.ndrive_Y_<3> DVSS nfet_06v0 ad=1.56p pd=6.52u as=1.56p ps=6.52u w=6u l=0.7u
X84 DVSS a_11294_42658# GF_NI_IN_C_BASE_0.pdrive_y_<3> DVSS nfet_06v0 ad=1.56p pd=6.52u as=1.56p ps=6.52u w=6u l=0.7u
X85 DVSS a_6824_66070# GF_NI_IN_C_BASE_0.comp018green_inpath_cms_smt_0.comp018green_sigbuf_3.Z DVSS nfet_06v0 ad=0.66p pd=3.88u as=0.39p ps=2.02u w=1.5u l=0.7u
X86 GF_NI_IN_C_BASE_0.comp018green_inpath_cms_smt_0.comp018green_sigbuf_3.Z a_6824_66070# DVDD DVDD pfet_06v0 ad=0.78p pd=3.52u as=0.78p ps=3.52u w=3u l=0.7u
X87 GF_NI_IN_C_BASE_0.comp018green_inpath_cms_smt_0.comp018green_sigbuf_0.ZB GF_NI_IN_C_BASE_0.comp018green_inpath_cms_smt_0.comp018green_sigbuf_0.Z DVDD DVDD pfet_06v0 ad=0.78p pd=3.52u as=0.78p ps=3.52u w=3u l=0.7u
X88 PAD GF_NI_IN_C_BASE_0.pdrive_x_<3> DVDD DVDD pfet_06v0_dss d_sab=2.78u s_sab=0.28u ad=0.111n pd=85.6u as=11.2p ps=80.6u w=40u l=0.7u  
X89 DVSS a_7790_42658# GF_NI_IN_C_BASE_0.ndrive_y_<2> DVSS nfet_06v0 ad=1.56p pd=6.52u as=1.56p ps=6.52u w=6u l=0.7u
X90 DVDD GF_NI_IN_C_BASE_0.comp018green_inpath_cms_smt_0.comp018green_sigbuf_3.Z GF_NI_IN_C_BASE_0.comp018green_inpath_cms_smt_0.comp018green_sigbuf_3.ZB DVDD pfet_06v0 ad=0.78p pd=3.52u as=0.78p ps=3.52u w=3u l=0.7u
X91 DVDD a_9135_66114# GF_NI_IN_C_BASE_0.comp018green_inpath_cms_smt_0.comp018green_sigbuf_0.Z DVDD pfet_06v0 ad=0.78p pd=3.52u as=0.78p ps=3.52u w=3u l=0.7u
X92 a_782_42658# GF_NI_IN_C_BASE_0.comp018green_out_sigbuf_oe_0.ENB a_1842_42702# DVDD pfet_06v0 ad=3.12p pd=12.5u as=5.28p ps=24.9u w=12u l=0.7u
X93 VDD GF_NI_IN_C_BASE_0.comp018green_inpath_cms_smt_0.comp018green_in_drv_0.Z Y VDD pfet_06v0 ad=0.91p pd=4.02u as=0.91p ps=4.02u w=3.5u l=0.7u
X94 Y GF_NI_IN_C_BASE_0.comp018green_inpath_cms_smt_0.comp018green_in_drv_0.Z VDD VDD pfet_06v0 ad=0.91p pd=4.02u as=1.54p ps=7.88u w=3.5u l=0.7u
D4 GF_NI_IN_C_BASE_0.comp018green_sigbuf_1_0.A VDD diode_pd2nw_06v0 pj=4p area=1p
X95 a_3430_64174# a_2947_62959# GF_NI_IN_C_BASE_0.comp018green_inpath_cms_smt_0.comp018green_in_drv_0.A DVDD pfet_06v0 ad=0.88p pd=4.88u as=0.88p ps=4.88u w=2u l=0.7u
X96 GF_NI_IN_C_BASE_0.comp018green_inpath_cms_smt_0.PAD a_2871_53799# DVDD ppolyf_u r_width=0.8u r_length=23u
X97 DVSS a_11617_50255# GF_NI_IN_C_BASE_0.comp018green_sigbuf_1_0.Z DVSS nfet_06v0 ad=0.39p pd=2.02u as=0.39p ps=2.02u w=1.5u l=0.7u
X98 GF_NI_IN_C_BASE_0.pdrive_y_<1> a_4286_42658# DVSS DVSS nfet_06v0 ad=1.56p pd=6.52u as=2.64p ps=12.9u w=6u l=0.7u
X99 a_4235_64174# GF_NI_IN_C_BASE_0.comp018green_inpath_cms_smt_0.PAD a_5463_64226# DVSS nfet_06v0 ad=0.689p pd=3.17u as=1.17p ps=6.18u w=2.65u l=0.7u
X100 VSS GF_NI_IN_C_BASE_0.comp018green_inpath_cms_smt_0.comp018green_in_drv_0.Z Y VSS nfet_06v0 ad=0.39p pd=2.02u as=0.39p ps=2.02u w=1.5u l=0.7u
X101 VSS PU a_12715_59719# VSS nfet_06v0 ad=0.66p pd=3.88u as=0.66p ps=3.88u w=1.5u l=0.7u
X102 a_1191_61041# GF_NI_IN_C_BASE_0.comp018green_inpath_cms_smt_0.comp018green_sigbuf_2.Z DVDD DVDD pfet_06v0 ad=1.32p pd=6.88u as=1.32p ps=6.88u w=3u l=0.7u
X103 DVSS a_8953_50127# GF_NI_IN_C_BASE_0.comp018green_out_sigbuf_a_0.AB DVSS nfet_06v0 ad=0.78p pd=3.52u as=1.32p ps=6.88u w=3u l=0.7u
X104 GF_NI_IN_C_BASE_0.ndrive_x_<1> GF_NI_IN_C_BASE_0.comp018green_sigbuf_1_0.Z GF_NI_IN_C_BASE_0.ndrive_Y_<1> DVDD pfet_06v0 ad=3.12p pd=12.5u as=5.28p ps=24.9u w=12u l=0.7u
X105 GF_NI_IN_C_BASE_0.comp018green_inpath_cms_smt_0.comp018green_sigbuf_3.ZB GF_NI_IN_C_BASE_0.comp018green_inpath_cms_smt_0.comp018green_sigbuf_3.Z DVSS DVSS nfet_06v0 ad=0.39p pd=2.02u as=0.66p ps=3.88u w=1.5u l=0.7u
X106 DVSS a_2947_62959# a_3430_64174# DVSS nfet_06v0 ad=0.66p pd=3.88u as=0.66p ps=3.88u w=1.5u l=0.7u
X107 DVSS a_1842_42702# GF_NI_IN_C_BASE_0.pdrive_y_<0> DVSS nfet_06v0 ad=2.64p pd=12.9u as=1.56p ps=6.52u w=6u l=0.7u
X108 GF_NI_IN_C_BASE_0.comp018green_inpath_cms_smt_0.comp018green_sigbuf_2.Z a_12068_66070# DVSS DVSS nfet_06v0 ad=0.39p pd=2.02u as=0.39p ps=2.02u w=1.5u l=0.7u
X109 Y GF_NI_IN_C_BASE_0.comp018green_inpath_cms_smt_0.comp018green_in_drv_0.Z VSS VSS nfet_06v0 ad=0.39p pd=2.02u as=0.66p ps=3.88u w=1.5u l=0.7u
X110 DVDD a_8953_50127# GF_NI_IN_C_BASE_0.comp018green_out_sigbuf_a_0.AB DVDD pfet_06v0 ad=1.56p pd=6.52u as=2.64p ps=12.9u w=6u l=0.7u
X111 GF_NI_IN_C_BASE_0.pdrive_y_<0> a_1842_42702# DVSS DVSS nfet_06v0 ad=1.56p pd=6.52u as=1.56p ps=6.52u w=6u l=0.7u
X112 DVDD GF_NI_IN_C_BASE_0.comp018green_inpath_cms_smt_0.comp018green_sigbuf_2.Z GF_NI_IN_C_BASE_0.comp018green_inpath_cms_smt_0.comp018green_sigbuf_2.ZB DVDD pfet_06v0 ad=0.78p pd=3.52u as=0.78p ps=3.52u w=3u l=0.7u
X113 a_782_42658# GF_NI_IN_C_BASE_0.comp018green_out_sigbuf_oe_0.EN a_1842_42702# DVSS nfet_06v0 ad=2.64p pd=12.9u as=1.56p ps=6.52u w=6u l=0.7u
X114 GF_NI_IN_C_BASE_0.pdrive_y_<2> a_8850_42702# DVDD DVDD pfet_06v0 ad=3.12p pd=12.5u as=5.28p ps=24.9u w=12u l=0.7u
X115 GF_NI_IN_C_BASE_0.pdrive_y_<3> DVDD GF_NI_IN_C_BASE_0.pdrive_x_<3> DVSS nfet_06v0 ad=0.528p pd=3.28u as=0.528p ps=3.28u w=1.2u l=0.7u
X116 GF_NI_IN_C_BASE_0.comp018green_inpath_cms_smt_0.comp018green_sigbuf_2.ZB GF_NI_IN_C_BASE_0.comp018green_inpath_cms_smt_0.comp018green_sigbuf_2.Z DVDD DVDD pfet_06v0 ad=0.78p pd=3.52u as=1.32p ps=6.88u w=3u l=0.7u
X117 DVSS GF_NI_IN_C_BASE_0.comp018green_sigbuf_1_0.Z GF_NI_IN_C_BASE_0.comp018green_sigbuf_1_0.ZB DVSS nfet_06v0 ad=0.66p pd=3.88u as=0.39p ps=2.02u w=1.5u l=0.7u
X118 PAD GF_NI_IN_C_BASE_0.pdrive_y_<2> DVDD DVDD pfet_06v0_dss d_sab=2.78u s_sab=0.28u ad=0.111n pd=85.6u as=11.2p ps=80.6u w=40u l=0.7u  
X119 GF_NI_IN_C_BASE_0.pdrive_x_<3> GF_NI_IN_C_BASE_0.comp018green_sigbuf_1_0.ZB GF_NI_IN_C_BASE_0.pdrive_y_<3> DVSS nfet_06v0 ad=2.64p pd=12.9u as=1.56p ps=6.52u w=6u l=0.7u
X120 a_6504_51859# GF_NI_IN_C_BASE_0.comp018green_sigbuf_1_0.A a_6504_50171# VSS nfet_06v0 ad=1.32p pd=6.88u as=0.78p ps=3.52u w=3u l=0.7u
X121 PAD GF_NI_IN_C_BASE_0.ndrive_x_<2> DVSS DVSS nfet_06v0_dss d_sab=3.78u s_sab=0.28u ad=0.144n pd=83.6u as=10.6p ps=76.6u w=38u l=1.15u  
X122 GF_NI_IN_C_BASE_0.comp018green_inpath_cms_smt_0.comp018green_sigbuf_1.Z a_3891_66114# DVSS DVSS nfet_06v0 ad=0.39p pd=2.02u as=0.66p ps=3.88u w=1.5u l=0.7u
X123 a_6504_50171# VDD VSS VSS nfet_06v0 ad=0.78p pd=3.52u as=1.32p ps=6.88u w=3u l=0.7u
X124 GF_NI_IN_C_BASE_0.pdrive_y_<3> GF_NI_IN_C_BASE_0.comp018green_sigbuf_1_0.ZB GF_NI_IN_C_BASE_0.pdrive_x_<3> DVSS nfet_06v0 ad=1.56p pd=6.52u as=2.64p ps=12.9u w=6u l=0.7u
X125 a_4235_64174# GF_NI_IN_C_BASE_0.comp018green_inpath_cms_smt_0.comp018green_sigbuf_1.Z DVSS DVSS nfet_06v0 ad=1.41p pd=7.28u as=0.832p ps=3.72u w=3.2u l=0.7u
X126 a_5575_62984# GF_NI_IN_C_BASE_0.comp018green_inpath_cms_smt_0.PAD GF_NI_IN_C_BASE_0.comp018green_inpath_cms_smt_0.comp018green_in_drv_0.A DVDD pfet_06v0 ad=0.946p pd=5.18u as=0.559p ps=2.67u w=2.15u l=0.7u
X127 a_1191_61041# a_1191_53799# DVDD ppolyf_u r_width=0.8u r_length=35.7u
D5 VSS GF_NI_IN_C_BASE_0.comp018green_sigbuf_1_0.A diode_pd2nw_06v0 pj=1.92p area=0.23p
D6 GF_NI_IN_C_BASE_0.comp018green_sigbuf_1_0.A VDD diode_pd2nw_06v0 pj=4p area=1p
X128 DVSS GF_NI_IN_C_BASE_0.comp018green_out_sigbuf_oe_1.EN GF_NI_IN_C_BASE_0.comp018green_out_sigbuf_oe_1.ENB DVSS nfet_06v0 ad=0.78p pd=3.52u as=1.32p ps=6.88u w=3u l=0.7u
X129 GF_NI_IN_C_BASE_0.ndrive_x_<2> GF_NI_IN_C_BASE_0.comp018green_sigbuf_1_0.Z GF_NI_IN_C_BASE_0.ndrive_y_<2> DVDD pfet_06v0 ad=3.12p pd=12.5u as=3.12p ps=12.5u w=12u l=0.7u
X130 VSS GF_NI_IN_C_BASE_0.comp018green_inpath_cms_smt_0.comp018green_sigbuf_2.A a_12068_66070# VSS nfet_06v0 ad=0.66p pd=3.88u as=0.66p ps=3.88u w=1.5u l=0.7u
X131 DVDD GF_NI_IN_C_BASE_0.comp018green_out_sigbuf_oe_1.EN GF_NI_IN_C_BASE_0.comp018green_out_sigbuf_oe_1.ENB DVDD pfet_06v0 ad=1.56p pd=6.52u as=2.64p ps=12.9u w=6u l=0.7u
X132 GF_NI_IN_C_BASE_0.ndrive_y_<2> DVSS GF_NI_IN_C_BASE_0.ndrive_x_<2> DVDD pfet_06v0 ad=0.528p pd=3.28u as=0.528p ps=3.28u w=1.2u l=0.7u
X133 GF_NI_IN_C_BASE_0.pdrive_x_<0> a_1842_42702# DVDD DVDD pfet_06v0 ad=3.12p pd=12.5u as=3.12p ps=12.5u w=12u l=0.7u
X134 GF_NI_IN_C_BASE_0.comp018green_sigbuf_1_0.Z a_11617_50255# DVSS DVSS nfet_06v0 ad=0.39p pd=2.02u as=0.66p ps=3.88u w=1.5u l=0.7u
X135 DVDD GF_NI_IN_C_BASE_0.comp018green_out_sigbuf_a_0.AB a_5346_42702# DVDD pfet_06v0 ad=3.12p pd=12.5u as=5.28p ps=24.9u w=12u l=0.7u
X136 DVDD GF_NI_IN_C_BASE_0.pdrive_y_<3> PAD DVDD pfet_06v0_dss d_sab=0.28u s_sab=2.78u ad=11.2p pd=80.6u as=0.111n ps=85.6u w=40u l=0.7u  
X137 GF_NI_IN_C_BASE_0.ndrive_Y_<1> a_5346_42702# DVSS DVSS nfet_06v0 ad=1.56p pd=6.52u as=1.56p ps=6.52u w=6u l=0.7u
D7 PU VDD diode_pd2nw_06v0 pj=4p area=1p
X138 GF_NI_IN_C_BASE_0.comp018green_inpath_cms_smt_0.comp018green_in_drv_0.Z a_9536_64031# VDD VDD pfet_06v0 ad=0.65p pd=3.02u as=1.1p ps=5.88u w=2.5u l=0.7u
X139 a_12527_59719# PD VDD VDD pfet_06v0 ad=1.32p pd=6.88u as=1.32p ps=6.88u w=3u l=0.7u
X140 DVSS GF_NI_IN_C_BASE_0.comp018green_out_sigbuf_oe_1.ENB a_4286_42658# DVSS nfet_06v0 ad=1.56p pd=6.52u as=1.56p ps=6.52u w=6u l=0.7u
X141 DVDD a_8850_42702# GF_NI_IN_C_BASE_0.pdrive_x_<2> DVDD pfet_06v0 ad=5.28p pd=24.9u as=3.12p ps=12.5u w=12u l=0.7u
X142 a_3891_66114# GF_NI_IN_C_BASE_0.comp018green_inpath_cms_smt_0.IE VDD VDD pfet_06v0 ad=1.32p pd=6.88u as=1.32p ps=6.88u w=3u l=0.7u
X143 a_1260_51859# GF_NI_IN_C_BASE_0.comp018green_sigbuf_1_0.A a_1260_50171# VSS nfet_06v0 ad=1.32p pd=6.88u as=0.78p ps=3.52u w=3u l=0.7u
X144 DVDD DVSS cap_nmos_06v0 c_width=5u c_length=1.5u
X145 DVDD GF_NI_IN_C_BASE_0.comp018green_inpath_cms_smt_0.comp018green_sigbuf_3.Z a_4157_62997# DVDD pfet_06v0 ad=0.66p pd=3.88u as=0.39p ps=2.02u w=1.5u l=0.7u
X146 VDD a_9536_64031# GF_NI_IN_C_BASE_0.comp018green_inpath_cms_smt_0.comp018green_in_drv_0.Z VDD pfet_06v0 ad=1.1p pd=5.88u as=0.65p ps=3.02u w=2.5u l=0.7u
X147 GF_NI_IN_C_BASE_0.comp018green_inpath_cms_smt_0.comp018green_in_logic_pupd_0.comp018green_std_xor2_0.Z PD a_12715_59719# VSS nfet_06v0 ad=0.66p pd=3.88u as=0.66p ps=3.88u w=1.5u l=0.7u
X148 a_12354_42702# GF_NI_IN_C_BASE_0.comp018green_out_sigbuf_oe_2.EN DVDD DVDD pfet_06v0 ad=3.12p pd=12.5u as=3.12p ps=12.5u w=12u l=0.7u
X149 DVDD a_11294_42658# GF_NI_IN_C_BASE_0.pdrive_y_<3> DVDD pfet_06v0 ad=5.28p pd=24.9u as=3.12p ps=12.5u w=12u l=0.7u
X150 VDD GF_NI_IN_C_BASE_0.comp018green_sigbuf_1_0.A a_6504_51859# VDD pfet_06v0 ad=1.32p pd=6.88u as=0.78p ps=3.52u w=3u l=0.7u
X151 DVSS a_8850_42702# GF_NI_IN_C_BASE_0.pdrive_y_<2> DVSS nfet_06v0 ad=2.64p pd=12.9u as=1.56p ps=6.52u w=6u l=0.7u
X152 GF_NI_IN_C_BASE_0.ndrive_y_<2> a_7790_42658# DVSS DVSS nfet_06v0 ad=1.56p pd=6.52u as=1.56p ps=6.52u w=6u l=0.7u
X153 a_6504_51859# VDD VDD VDD pfet_06v0 ad=0.78p pd=3.52u as=1.32p ps=6.88u w=3u l=0.7u
X154 GF_NI_IN_C_BASE_0.pdrive_y_<2> a_8850_42702# DVSS DVSS nfet_06v0 ad=1.56p pd=6.52u as=1.56p ps=6.52u w=6u l=0.7u
X155 DVDD a_3891_66114# GF_NI_IN_C_BASE_0.comp018green_inpath_cms_smt_0.comp018green_sigbuf_1.Z DVDD pfet_06v0 ad=0.78p pd=3.52u as=0.78p ps=3.52u w=3u l=0.7u
X156 a_2947_62959# GF_NI_IN_C_BASE_0.comp018green_inpath_cms_smt_0.comp018green_sigbuf_3.Z DVSS DVSS nfet_06v0 ad=0.52p pd=2.52u as=0.88p ps=4.88u w=2u l=0.7u
X157 DVSS GF_NI_IN_C_BASE_0.ndrive_Y_<1> PAD DVSS nfet_06v0_dss d_sab=0.28u s_sab=3.78u ad=10.6p pd=76.6u as=0.144n ps=83.6u w=38u l=1.15u  
X158 GF_NI_IN_C_BASE_0.ndrive_y_<0> a_782_42658# DVDD DVDD pfet_06v0 ad=3.12p pd=12.5u as=3.12p ps=12.5u w=12u l=0.7u
X159 a_7790_42658# GF_NI_IN_C_BASE_0.comp018green_out_sigbuf_oe_1.EN a_8850_42702# DVSS nfet_06v0 ad=2.64p pd=12.9u as=1.56p ps=6.52u w=6u l=0.7u
D8 GF_NI_IN_C_BASE_0.comp018green_inpath_cms_smt_0.PAD DVDD diode_pd2nw_06v0 pj=42p area=20p
X160 GF_NI_IN_C_BASE_0.comp018green_inpath_cms_smt_0.PAD PAD DVDD ppolyf_u r_width=2.5u r_length=2.8u
X161 DVDD DVSS cap_nmos_06v0 c_width=5u c_length=1.5u
X162 VDD GF_NI_IN_C_BASE_0.comp018green_inpath_cms_smt_0.comp018green_in_drv_0.Z Y VDD pfet_06v0 ad=0.91p pd=4.02u as=0.91p ps=4.02u w=3.5u l=0.7u
X163 DVDD DVSS cap_nmos_06v0 c_width=3u c_length=3u
X164 GF_NI_IN_C_BASE_0.pdrive_y_<0> GF_NI_IN_C_BASE_0.comp018green_sigbuf_1_0.ZB GF_NI_IN_C_BASE_0.pdrive_x_<0> DVSS nfet_06v0 ad=1.56p pd=6.52u as=2.64p ps=12.9u w=6u l=0.7u
X165 DVDD GF_NI_IN_C_BASE_0.pdrive_x_<1> PAD DVDD pfet_06v0_dss d_sab=0.28u s_sab=2.78u ad=11.2p pd=80.6u as=0.111n ps=85.6u w=40u l=0.7u  
X166 DVDD DVSS cap_nmos_06v0 c_width=5u c_length=1.5u
X167 a_2947_62959# GF_NI_IN_C_BASE_0.comp018green_inpath_cms_smt_0.comp018green_sigbuf_3.Z DVDD DVDD pfet_06v0 ad=1.04p pd=4.52u as=1.76p ps=8.88u w=4u l=0.7u
X168 DVSS a_6504_51859# GF_NI_IN_C_BASE_0.comp018green_out_sigbuf_oe_2.EN DVSS nfet_06v0 ad=0.78p pd=3.52u as=1.32p ps=6.88u w=3u l=0.7u
X169 DVSS GF_NI_IN_C_BASE_0.comp018green_inpath_cms_smt_0.comp018green_in_drv_0.A a_9536_64031# DVSS nfet_06v0 ad=1.04p pd=4.52u as=1.76p ps=8.88u w=4u l=0.7u
X170 DVDD a_6504_51859# GF_NI_IN_C_BASE_0.comp018green_out_sigbuf_oe_2.EN DVDD pfet_06v0 ad=1.56p pd=6.52u as=2.64p ps=12.9u w=6u l=0.7u
X171 a_11294_42658# GF_NI_IN_C_BASE_0.comp018green_out_sigbuf_oe_2.EN a_12354_42702# DVSS nfet_06v0 ad=1.56p pd=6.52u as=2.64p ps=12.9u w=6u l=0.7u
X172 DVDD a_4286_42658# GF_NI_IN_C_BASE_0.pdrive_x_<1> DVDD pfet_06v0 ad=3.12p pd=12.5u as=3.12p ps=12.5u w=12u l=0.7u
X173 a_9135_66114# GF_NI_IN_C_BASE_0.comp018green_inpath_cms_smt_0.comp018green_sigbuf_0.A VSS VSS nfet_06v0 ad=0.66p pd=3.88u as=0.66p ps=3.88u w=1.5u l=0.7u
X174 a_3430_64174# GF_NI_IN_C_BASE_0.comp018green_inpath_cms_smt_0.comp018green_sigbuf_3.Z GF_NI_IN_C_BASE_0.comp018green_inpath_cms_smt_0.comp018green_in_drv_0.A DVSS nfet_06v0 ad=0.66p pd=3.88u as=0.66p ps=3.88u w=1.5u l=0.7u
X175 a_4286_42658# GF_NI_IN_C_BASE_0.comp018green_out_sigbuf_a_0.AB DVSS DVSS nfet_06v0 ad=2.64p pd=12.9u as=1.56p ps=6.52u w=6u l=0.7u
X176 GF_NI_IN_C_BASE_0.pdrive_x_<2> DVDD GF_NI_IN_C_BASE_0.pdrive_y_<2> DVSS nfet_06v0 ad=0.528p pd=3.28u as=0.528p ps=3.28u w=1.2u l=0.7u
X177 VSS GF_NI_IN_C_BASE_0.comp018green_inpath_cms_smt_0.comp018green_in_drv_0.Z Y VSS nfet_06v0 ad=0.39p pd=2.02u as=0.39p ps=2.02u w=1.5u l=0.7u
X178 a_1471_61041# a_1191_53799# DVDD ppolyf_u r_width=0.8u r_length=35.7u
D9 DVSS GF_NI_IN_C_BASE_0.comp018green_inpath_cms_smt_0.PAD diode_nd2ps_06v0 pj=42p area=20p
X179 DVSS a_4286_42658# GF_NI_IN_C_BASE_0.pdrive_y_<1> DVSS nfet_06v0 ad=1.56p pd=6.52u as=1.56p ps=6.52u w=6u l=0.7u
X180 VDD GF_NI_IN_C_BASE_0.comp018green_inpath_cms_smt_0.comp018green_in_drv_0.Z Y VDD pfet_06v0 ad=1.54p pd=7.88u as=0.91p ps=4.02u w=3.5u l=0.7u
X181 DVSS GF_NI_IN_C_BASE_0.ndrive_y_<2> PAD DVSS nfet_06v0_dss d_sab=0.28u s_sab=3.78u ad=10.6p pd=76.6u as=0.144n ps=83.6u w=38u l=1.15u  
X182 GF_NI_IN_C_BASE_0.pdrive_x_<2> GF_NI_IN_C_BASE_0.comp018green_sigbuf_1_0.ZB GF_NI_IN_C_BASE_0.pdrive_y_<2> DVSS nfet_06v0 ad=2.64p pd=12.9u as=1.56p ps=6.52u w=6u l=0.7u
X183 DVDD GF_NI_IN_C_BASE_0.comp018green_inpath_cms_smt_0.comp018green_sigbuf_1.Z GF_NI_IN_C_BASE_0.comp018green_inpath_cms_smt_0.comp018green_in_drv_0.A DVDD pfet_06v0 ad=0.52p pd=2.52u as=0.52p ps=2.52u w=2u l=0.7u
X184 DVDD a_12068_66070# GF_NI_IN_C_BASE_0.comp018green_inpath_cms_smt_0.comp018green_sigbuf_2.Z DVDD pfet_06v0 ad=1.32p pd=6.88u as=0.78p ps=3.52u w=3u l=0.7u
X185 DVDD a_11617_50255# GF_NI_IN_C_BASE_0.comp018green_sigbuf_1_0.Z DVDD pfet_06v0 ad=0.78p pd=3.52u as=0.78p ps=3.52u w=3u l=0.7u
X186 GF_NI_IN_C_BASE_0.pdrive_y_<3> a_11294_42658# DVDD DVDD pfet_06v0 ad=3.12p pd=12.5u as=3.12p ps=12.5u w=12u l=0.7u
X187 DVDD DVSS cap_nmos_06v0 c_width=5u c_length=1.5u
X188 DVSS GF_NI_IN_C_BASE_0.comp018green_inpath_cms_smt_0.comp018green_sigbuf_1.Z GF_NI_IN_C_BASE_0.comp018green_inpath_cms_smt_0.comp018green_sigbuf_1.ZB DVSS nfet_06v0 ad=0.66p pd=3.88u as=0.39p ps=2.02u w=1.5u l=0.7u
X189 GF_NI_IN_C_BASE_0.comp018green_inpath_cms_smt_0.comp018green_sigbuf_0.Z a_9135_66114# DVDD DVDD pfet_06v0 ad=0.78p pd=3.52u as=1.32p ps=6.88u w=3u l=0.7u
X190 VSS GF_NI_IN_C_BASE_0.comp018green_inpath_cms_smt_0.comp018green_in_logic_pupd_0.comp018green_std_xor2_0.Z a_12000_56656# VSS nfet_06v0 ad=1.32p pd=6.88u as=0.78p ps=3.52u w=3u l=0.7u
X191 PU PD GF_NI_IN_C_BASE_0.comp018green_inpath_cms_smt_0.comp018green_in_logic_pupd_0.comp018green_std_xor2_0.Z VDD pfet_06v0 ad=1.32p pd=6.88u as=1.32p ps=6.88u w=3u l=0.7u
D10 VSS GF_NI_IN_C_BASE_0.comp018green_sigbuf_1_0.A diode_pd2nw_06v0 pj=1.92p area=0.23p
X192 GF_NI_IN_C_BASE_0.ndrive_Y_<3> a_12354_42702# DVDD DVDD pfet_06v0 ad=5.28p pd=24.9u as=3.12p ps=12.5u w=12u l=0.7u
X193 GF_NI_IN_C_BASE_0.comp018green_inpath_cms_smt_0.comp018green_sigbuf_1.ZB GF_NI_IN_C_BASE_0.comp018green_inpath_cms_smt_0.comp018green_sigbuf_1.Z DVSS DVSS nfet_06v0 ad=0.39p pd=2.02u as=0.39p ps=2.02u w=1.5u l=0.7u
X194 VSS GF_NI_IN_C_BASE_0.comp018green_inpath_cms_smt_0.comp018green_in_drv_0.Z Y VSS nfet_06v0 ad=0.66p pd=3.88u as=0.39p ps=2.02u w=1.5u l=0.7u
X195 DVDD DVSS cap_nmos_06v0 c_width=3u c_length=3u
X196 VDD GF_NI_IN_C_BASE_0.comp018green_sigbuf_1_0.A a_1260_51859# VDD pfet_06v0 ad=1.32p pd=6.88u as=0.78p ps=3.52u w=3u l=0.7u
X197 VDD GF_NI_IN_C_BASE_0.comp018green_inpath_cms_smt_0.comp018green_in_logic_pupd_0.comp018green_std_xor2_0.Z GF_NI_IN_C_BASE_0.comp018green_inpath_cms_smt_0.comp018green_sigbuf_0.A VDD pfet_06v0 ad=1.32p pd=6.88u as=0.78p ps=3.52u w=3u l=0.7u
X198 DVDD GF_NI_IN_C_BASE_0.comp018green_inpath_cms_smt_0.comp018green_sigbuf_0.Z GF_NI_IN_C_BASE_0.comp018green_inpath_cms_smt_0.comp018green_sigbuf_0.ZB DVDD pfet_06v0 ad=1.32p pd=6.88u as=0.78p ps=3.52u w=3u l=0.7u
X199 VSS GF_NI_IN_C_BASE_0.comp018green_sigbuf_1_0.A a_6824_66070# VSS nfet_06v0 ad=0.66p pd=3.88u as=0.66p ps=3.88u w=1.5u l=0.7u
X200 DVDD GF_NI_IN_C_BASE_0.comp018green_sigbuf_1_0.Z GF_NI_IN_C_BASE_0.comp018green_sigbuf_1_0.ZB DVDD pfet_06v0 ad=1.32p pd=6.88u as=0.78p ps=3.52u w=3u l=0.7u
X201 GF_NI_IN_C_BASE_0.comp018green_out_sigbuf_oe_0.ENB GF_NI_IN_C_BASE_0.comp018green_out_sigbuf_oe_0.EN DVSS DVSS nfet_06v0 ad=1.32p pd=6.88u as=0.78p ps=3.52u w=3u l=0.7u
D11 PD VDD diode_pd2nw_06v0 pj=4p area=1p
X202 Y GF_NI_IN_C_BASE_0.comp018green_inpath_cms_smt_0.comp018green_in_drv_0.Z VDD VDD pfet_06v0 ad=0.91p pd=4.02u as=0.91p ps=4.02u w=3.5u l=0.7u
X203 DVSS a_782_42658# GF_NI_IN_C_BASE_0.ndrive_x_<0> DVSS nfet_06v0 ad=1.56p pd=6.52u as=1.56p ps=6.52u w=6u l=0.7u
X204 PAD GF_NI_IN_C_BASE_0.ndrive_x_<3> DVSS DVSS nfet_06v0_dss d_sab=3.78u s_sab=0.28u ad=0.144n pd=83.6u as=10.6p ps=76.6u w=38u l=1.15u  